                                   MODFLOW 6
                U.S. GEOLOGICAL SURVEY MODULAR HYDROLOGIC MODEL
                             TRANSPORT MODEL (GWE)
                  VERSION 6.7.0.dev3 (preliminary) 10/16/2025
                               ***DEVELOP MODE***

   MODFLOW 6 compiled Oct 16 2025 14:05:53 with Intel(R) Fortran Intel(R) 64
   Compiler Classic for applications running on Intel(R) 64, Version 2021.7.0
                             Build 20220726_000000

This software is preliminary or provisional and is subject to 
revision. It is being provided to meet the need for timely best 
science. The software has not received final approval by the U.S. 
Geological Survey (USGS). No warranty, expressed or implied, is made 
by the USGS or the U.S. Government as to the functionality of the 
software and related material nor shall the fact of release 
constitute any such warranty. The software is provided on the 
condition that neither the USGS nor the U.S. Government shall be held 
liable for any damages resulting from the authorized or unauthorized 
use of the software.


As a work of the United States Government, this USGS product is 
in the public domain within the United States. You can copy, 
modify, distribute, and perform the work, even for commercial 
purposes, all without asking permission. Additionally, USGS 
waives copyright and related rights in the work worldwide 
through CC0 1.0 Universal Public Domain Dedication 
(https://creativecommons.org/publicdomain/zero/1.0/).

The following GNU Lesser General Public License (LGPL) libraries
are used in this USGS product:

    SPARSKIT version 2.0
      ilut, luson, and qsplit 
      (https://www-users.cse.umn.edu/~saad/software/SPARSKIT/)

    RCM - Reverse Cuthill McKee Ordering
      (https://people.math.sc.edu/Burkardt/f_src/rcm/rcm.html)

    BLAS - Basic Linear Algebra Subprograms Level 1
      (https://people.math.sc.edu/Burkardt/f_src/blas1_d/blas1_d.html)

    SPARSEKIT - Sparse Matrix Utility Package
      amux, dperm, dvperm, rperm, and cperm
      (https://people.sc.fsu.edu/~jburkardt/f77_src/sparsekit/sparsekit.html)

The following BSD-3 License libraries are used in this USGS product:

    Modern Fortran DAG Library
      Copyright (c) 2018, Jacob Williams
      All rights reserved.
      (https://github.com/jacobwilliams/daglib)

MODFLOW 6 compiler options: -Isrc/libmf6_external.a.p -Isrc/libmf6core.a.p
-Isrc -I../src -warn general -warn truncated_source -stand=f18 -O2 -fpe0
-no-heap-arrays -traceback -diag-disable:7416 -diag-disable:7025
-diag-disable:5268 -module src/libmf6core.a.p
-gen-dep=src/libmf6core.a.p/Utilities_compilerversion.F90.o
-gen-depformat=make -o src/libmf6core.a.p/Utilities_compilerversion.F90.o -c

System command used to initiate simulation:
./mf6

MODFLOW was compiled using uniform precision.

Real Variables
  KIND: 8
  TINY (smallest non-zero value):    2.225074-308
  HUGE (largest value):    1.797693+308
  PRECISION: 15
  SIZE IN BITS: 64

Integer Variables
  KIND: 4
  HUGE (largest value): 2147483647
  SIZE IN BITS: 32

Long Integer Variables
  KIND: 8
  HUGE (largest value): 9223372036854775807
  SIZE IN BITS: 64

Logical Variables
  KIND: 4
  SIZE IN BITS: 32
 
 NAMEFILE OPTIONS:
 END NAMEFILE OPTIONS:

 DISV -- VERTEX GRID DISCRETIZATION PACKAGE, VERSION 1 : 12/23/2015 - INPUT READ FROM MEMPATH: __INPUT__/GWE/DISV                                


 Setting Discretization Options
    Binary grid file [0=GRB, 1=NOGRB] set as 1
 End Setting Discretization Options

 Setting Discretization Dimensions
    NLAY = 1
    NCPL = 13417
    NVERT = 26966
 End Setting Discretization Dimensions

 Setting Discretization Griddata
    TOP set from input file
    BOTM set from input file
 End Setting Discretization Griddata

 Discretization Vertex data loaded
 Discretization Cell2d data loaded

 CND-- THERMAL CONDUCTION AND DISPERSION PACKAGE, VERSION 1, 01/01/2024, INPUT READ FROM MEMPATH __INPUT__/GWE/CND                                 



 FMI -- FLOW MODEL INTERFACE,' VERSION 2, 8/17/2023
  FLOWS PROVIDED BY A GWF MODEL IN THIS SIMULATION

 ADV -- ADVECTION PACKAGE, VERSION 1, 8/25/2017 INPUT READ FROM MEMPATH: __INPUT__/GWE/ADV                                 


 PROCESSING ADVECTION OPTIONS
    ADVECTION WEIGHTING SCHEME HAS BEEN SET TO: TVD
 END OF ADVECTION OPTIONS
 Setting CND Options
    XT3D formulation [0=INACTIVE, 1=ACTIVE, 3=ACTIVE RHS] set to: 1
 End Setting CND Options

 Setting CND Griddata
    ALH set from input file
    ATH1 set from input file
    KTW set from input file
    KTS set from input file
 End Setting CND Griddata

    STRT set from input file

 EST -- ENERGY STORAGE AND TRANSFER PACKAGE, VERSION 1, 7/29/2020 INPUT READ FROM MEMPATH: __INPUT__/GWE/EST                                 

 PROCESSING ENERGY STORAGE AND TRANSFER OPTIONS
    Heat capacity of the water has been set to:     4180.00    
    Density of the water has been set to:     1000.00    
    Latent heat of vaporization of the water has been set to:    2.454000E+06
 END PROCESSING ENERGY STORAGE AND TRANSFER OPTIONS

 PROCESSING ENERGY STORAGE AND TRANSFER GRIDDATA
    POROSITY set from input file
    HEAT_CAPACITY_SOLID set from input file
    DENSITY_SOLID set from input file
 END PROCESSING ENERGY STORAGE AND TRANSFER GRIDDATA

 SSM -- SOURCE-SINK MIXING PACKAGE, VERSION 1, 8/25/2017 INPUT READ FROM MEMPATH: __INPUT__/GWE/SSM                                 


 PROCESSING SSM OPTIONS
 END OF SSM OPTIONS

 PROCESSING SSM SOURCES
    AUX SOURCE DETECTED.
    USING AUX COLUMN 1 IN PACKAGE AUX
    AUX SOURCE DETECTED.
    USING AUX COLUMN 1 IN PACKAGE AUX
    AUX SOURCE DETECTED.
    USING AUX COLUMN 1 IN PACKAGE AUX
    AUX SOURCE DETECTED.
    USING AUX COLUMN 1 IN PACKAGE AUX
 END PROCESSING SSM SOURCES

 PROCESSING SSM FILEINPUT
    SPC6 SOURCE DETECTED:

 OPENED gwe.well_inject.spc
 FILE TYPE:SPC   UNIT 1071   STATUS:OLD                 
 FORMAT:FORMATTED              ACCESS:SEQUENTIAL          
 ACTION:READ                

 # File generated by Flopy version 3.10.0.dev5 on 10/29/2025 at 13:54:48.
 PROCESSING SPC OPTIONS
 END OF SPC OPTIONS

 PROCESSING STRESS PACK COMP DIMENSIONS
    MAXBOUND =       4
 END OF STRESS PACK COMP DIMENSIONS
    USING SPC INPUT FILE gwe.well_inject.spc TO SET TEMPERATURES FOR PACKAGE 
    WELL_INJECT
 END PROCESSING SSM FILEINPUT

The observation utility is active for "GWE"
 # File generated by Flopy version 3.10.0.dev5 on 10/29/2025 at 13:54:48.

Processing observation options:

Text output number of digits of precision set to: 10


 OPENED gwe.obs_continuous_gwe_temps1.csv.txt
 FILE TYPE:OPEN/CLOSE   UNIT 1072   STATUS:OLD                 
 FORMAT:FORMATTED              ACCESS:SEQUENTIAL          
 ACTION:READ                


 OPENED gwe.obs_continuous_gwe_temps2.csv.txt
 FILE TYPE:OPEN/CLOSE   UNIT 1074   STATUS:OLD                 
 FORMAT:FORMATTED              ACCESS:SEQUENTIAL          
 ACTION:READ                


 OPENED gwe.obs_continuous_gwe_temps_ext.csv.txt
 FILE TYPE:OPEN/CLOSE   UNIT 1076   STATUS:OLD                 
 FORMAT:FORMATTED              ACCESS:SEQUENTIAL          
 ACTION:READ                

      THE LAST TIME STEP WILL BE PRINTED
      THE LAST TIME STEP WILL BE PRINTED
 # File generated by Flopy version 3.10.0.dev5 on 10/29/2025 at 13:54:48.

 PROCESSING OC OPTIONS

    BUDGET INFORMATION WILL BE WRITTEN TO:
      UNIT NUMBER: 1078
      FILE NAME: gwe.cbc

 OPENED gwe.cbc
 FILE TYPE:DATA(BINARY)   UNIT 1078   STATUS:REPLACE             
 FORMAT:UNFORMATTED            ACCESS:STREAM              
 ACTION:READWRITE           

    TEMPERATURE INFORMATION WILL BE WRITTEN TO:
      UNIT NUMBER: 1079
      FILE NAME: gwe.ucn

 OPENED gwe.ucn
 FILE TYPE:DATA(BINARY)   UNIT 1079   STATUS:REPLACE             
 FORMAT:UNFORMATTED            ACCESS:STREAM              
 ACTION:READWRITE           

 END OF OC OPTIONS

start timestep kper="1" kstp="1" mode="normal"


 BEGIN READING OUTPUT CONTROL FOR STRESS PERIOD 1
      THE LAST TIME STEP WILL BE SAVED

 END READING OUTPUT CONTROL FOR STRESS PERIOD 1

 XT3D is active.



 TEMPERATURE WILL BE SAVED ON UNIT 1079 AT END OF TIME STEP    1, STRESS PERIOD    1


  ENERGY BUDGET FOR ENTIRE MODEL AT END OF TIME STEP    1, STRESS PERIOD   1
  ---------------------------------------------------------------------------------------------------

     CUMULATIVE ENERGY      E       RATES FOR THIS TIME STEP      E/T          PACKAGE NAME    
     ------------------                 ------------------------                     ----------------

           IN:                                      IN:
           ---                                      ---
     STORAGE-CELLBLK =        1499.2623       STORAGE-CELLBLK =        1499.2623     EST                              
                 WEL =           0.0000                   WEL =           0.0000     SSM_WELL_INJECT                  
                 WEL =           0.0000                   WEL =           0.0000     SSM_WELL_EXTRACT                 
                 RIV =      595045.3631                   RIV =      595045.3631     SSM_RIV                          
                RCHA =      264614.0081                  RCHA =      264614.0081     SSM_RCH                          
                 CHD =      982218.4558                   CHD =      982218.4558     SSM_CHD                          

            TOTAL IN =     1843377.0893              TOTAL IN =     1843377.0893

          OUT:                                     OUT:
          ----                                     ----
     STORAGE-CELLBLK =        1905.9621       STORAGE-CELLBLK =        1905.9621     EST                              
                 WEL =           0.0000                   WEL =           0.0000     SSM_WELL_INJECT                  
                 WEL =           0.0000                   WEL =           0.0000     SSM_WELL_EXTRACT                 
                 RIV =      849410.8229                   RIV =      849410.8229     SSM_RIV                          
                RCHA =           0.0000                  RCHA =           0.0000     SSM_RCH                          
                 CHD =      992060.3219                   CHD =      992060.3219     SSM_CHD                          

           TOTAL OUT =     1843377.1069             TOTAL OUT =     1843377.1069

            IN - OUT =      -1.7586E-02              IN - OUT =      -1.7586E-02

 PERCENT DISCREPANCY =          -0.00     PERCENT DISCREPANCY =          -0.00




         TIME SUMMARY AT END OF TIME STEP    1 IN STRESS PERIOD    1
                    SECONDS     MINUTES      HOURS       DAYS        YEARS
                    -----------------------------------------------------------
   TIME STEP LENGTH  1.0000     1.66667E-02 2.77778E-04 1.15741E-05 3.16881E-08
 STRESS PERIOD TIME  1.0000     1.66667E-02 2.77778E-04 1.15741E-05 3.16881E-08
         TOTAL TIME  1.0000     1.66667E-02 2.77778E-04 1.15741E-05 3.16881E-08


end timestep


start timestep kper="2" kstp="1" mode="normal"


 END OF FILE DETECTED IN OUTPUT CONTROL.
 CURRENT OUTPUT CONTROL SETTINGS WILL BE 
 REPEATED UNTIL THE END OF THE SIMULATION.

 OUTPUT CONTROL FOR STRESS PERIOD 2 IS REPEATED USING SETTINGS FROM A PREVIOUS STRESS PERIOD.

 OPENED gwe.well_inject.spc_perioddata_2.txt
 FILE TYPE:OPEN/CLOSE   UNIT 1082   STATUS:OLD                 
 FORMAT:FORMATTED              ACCESS:SEQUENTIAL          
 ACTION:READ                


end timestep


start timestep kper="2" kstp="2" mode="normal"


end timestep


start timestep kper="2" kstp="3" mode="normal"


end timestep


start timestep kper="2" kstp="4" mode="normal"


end timestep


start timestep kper="2" kstp="5" mode="normal"


end timestep


start timestep kper="2" kstp="6" mode="normal"


end timestep


start timestep kper="2" kstp="7" mode="normal"


end timestep


start timestep kper="2" kstp="8" mode="normal"


end timestep


start timestep kper="2" kstp="9" mode="normal"


end timestep


start timestep kper="2" kstp="10" mode="normal"


end timestep


start timestep kper="2" kstp="11" mode="normal"


end timestep


start timestep kper="2" kstp="12" mode="normal"


end timestep


start timestep kper="2" kstp="13" mode="normal"


end timestep


start timestep kper="2" kstp="14" mode="normal"


 TEMPERATURE WILL BE SAVED ON UNIT 1079 AT END OF TIME STEP   14, STRESS PERIOD    2


  ENERGY BUDGET FOR ENTIRE MODEL AT END OF TIME STEP   14, STRESS PERIOD   2
  ---------------------------------------------------------------------------------------------------

     CUMULATIVE ENERGY      E       RATES FOR THIS TIME STEP      E/T          PACKAGE NAME    
     ------------------                 ------------------------                     ----------------

           IN:                                      IN:
           ---                                      ---
     STORAGE-CELLBLK = 11835863619.2610       STORAGE-CELLBLK =         289.7200     EST                              
                 WEL =       6.4636E+13                   WEL =     3511200.0000     SSM_WELL_INJECT                  
                 WEL =           0.0000                   WEL =           0.0000     SSM_WELL_EXTRACT                 
                 RIV =       1.5636E+13                   RIV =      849542.7343     SSM_RIV                          
                RCHA =       4.8712E+12                  RCHA =      264614.0081     SSM_RCH                          
                 CHD =       2.0295E+13                   CHD =     1102488.6425     SSM_CHD                          

            TOTAL IN =       1.0545E+14              TOTAL IN =     5728135.1049

          OUT:                                     OUT:
          ----                                     ----
     STORAGE-CELLBLK =       1.5389E+13       STORAGE-CELLBLK =      835913.5993     EST                              
                 WEL =           0.0000                   WEL =           0.0000     SSM_WELL_INJECT                  
                 WEL =       4.9241E+13                   WEL =     2674954.1768     SSM_WELL_EXTRACT                 
                 RIV =       2.1918E+13                   RIV =     1190499.6300     SSM_RIV                          
                RCHA =           0.0000                  RCHA =           0.0000     SSM_RCH                          
                 CHD =       1.8902E+13                   CHD =     1026767.6988     SSM_CHD                          

           TOTAL OUT =       1.0545E+14             TOTAL OUT =     5728135.1049

            IN - OUT =          -1.7344              IN - OUT =      -2.1132E-06

 PERCENT DISCREPANCY =          -0.00     PERCENT DISCREPANCY =          -0.00




         TIME SUMMARY AT END OF TIME STEP   14 IN STRESS PERIOD    2
                    SECONDS     MINUTES      HOURS       DAYS        YEARS
                    -----------------------------------------------------------
   TIME STEP LENGTH 1.31490E+06  21915.      365.25      15.219     4.16667E-02
 STRESS PERIOD TIME 1.84086E+07 3.06810E+05  5113.5      213.06     0.58333    
         TOTAL TIME 1.84086E+07 3.06810E+05  5113.5      213.06     0.58333    


end timestep


start timestep kper="3" kstp="1" mode="normal"


 OUTPUT CONTROL FOR STRESS PERIOD 3 IS REPEATED USING SETTINGS FROM A PREVIOUS STRESS PERIOD.

 OPENED gwe.well_inject.spc_perioddata_3.txt
 FILE TYPE:OPEN/CLOSE   UNIT 1083   STATUS:OLD                 
 FORMAT:FORMATTED              ACCESS:SEQUENTIAL          
 ACTION:READ                


end timestep


start timestep kper="3" kstp="2" mode="normal"


end timestep


start timestep kper="3" kstp="3" mode="normal"


end timestep


start timestep kper="3" kstp="4" mode="normal"


end timestep


start timestep kper="3" kstp="5" mode="normal"


end timestep


start timestep kper="3" kstp="6" mode="normal"


end timestep


start timestep kper="3" kstp="7" mode="normal"


end timestep


start timestep kper="3" kstp="8" mode="normal"


end timestep


start timestep kper="3" kstp="9" mode="normal"


end timestep


start timestep kper="3" kstp="10" mode="normal"


 TEMPERATURE WILL BE SAVED ON UNIT 1079 AT END OF TIME STEP   10, STRESS PERIOD    3


  ENERGY BUDGET FOR ENTIRE MODEL AT END OF TIME STEP   10, STRESS PERIOD   3
  ---------------------------------------------------------------------------------------------------

     CUMULATIVE ENERGY      E       RATES FOR THIS TIME STEP      E/T          PACKAGE NAME    
     ------------------                 ------------------------                     ----------------

           IN:                                      IN:
           ---                                      ---
     STORAGE-CELLBLK =       2.0553E+13       STORAGE-CELLBLK =     1477562.9703     EST                              
                 WEL =       8.8820E+13                   WEL =     1839200.0000     SSM_WELL_INJECT                  
                 WEL =           0.0000                   WEL =           0.0000     SSM_WELL_EXTRACT                 
                 RIV =       2.6806E+13                   RIV =      849542.4864     SSM_RIV                          
                RCHA =       8.3506E+12                  RCHA =      264614.0081     SSM_RCH                          
                 CHD =       3.4791E+13                   CHD =     1102490.5915     SSM_CHD                          

            TOTAL IN =       1.7932E+14              TOTAL IN =     5533410.0563

          OUT:                                     OUT:
          ----                                     ----
     STORAGE-CELLBLK =       2.4933E+13       STORAGE-CELLBLK =      641218.2978     EST                              
                 WEL =           0.0000                   WEL =           0.0000     SSM_WELL_INJECT                  
                 WEL =       8.4414E+13                   WEL =     2674929.4959     SSM_WELL_EXTRACT                 
                 RIV =       3.7572E+13                   RIV =     1190496.3674     SSM_RIV                          
                RCHA =           0.0000                  RCHA =           0.0000     SSM_RCH                          
                 CHD =       3.2403E+13                   CHD =     1026765.8952     SSM_CHD                          

           TOTAL OUT =       1.7932E+14             TOTAL OUT =     5533410.0563

            IN - OUT =          -0.6250              IN - OUT =       3.4459E-08

 PERCENT DISCREPANCY =          -0.00     PERCENT DISCREPANCY =           0.00




         TIME SUMMARY AT END OF TIME STEP   10 IN STRESS PERIOD    3
                    SECONDS     MINUTES      HOURS       DAYS        YEARS
                    -----------------------------------------------------------
   TIME STEP LENGTH 1.31490E+06  21915.      365.25      15.219     4.16667E-02
 STRESS PERIOD TIME 1.31490E+07 2.19150E+05  3652.5      152.19     0.41667    
         TOTAL TIME 3.15576E+07 5.25960E+05  8766.0      365.25      1.0000    


end timestep


start timestep kper="4" kstp="1" mode="normal"


 OUTPUT CONTROL FOR STRESS PERIOD 4 IS REPEATED USING SETTINGS FROM A PREVIOUS STRESS PERIOD.

 OPENED gwe.well_inject.spc_perioddata_4.txt
 FILE TYPE:OPEN/CLOSE   UNIT 1084   STATUS:OLD                 
 FORMAT:FORMATTED              ACCESS:SEQUENTIAL          
 ACTION:READ                


end timestep


start timestep kper="4" kstp="2" mode="normal"


end timestep


start timestep kper="4" kstp="3" mode="normal"


end timestep


start timestep kper="4" kstp="4" mode="normal"


end timestep


start timestep kper="4" kstp="5" mode="normal"


end timestep


start timestep kper="4" kstp="6" mode="normal"


end timestep


start timestep kper="4" kstp="7" mode="normal"


end timestep


start timestep kper="4" kstp="8" mode="normal"


end timestep


start timestep kper="4" kstp="9" mode="normal"


end timestep


start timestep kper="4" kstp="10" mode="normal"


end timestep


start timestep kper="4" kstp="11" mode="normal"


end timestep


start timestep kper="4" kstp="12" mode="normal"


end timestep


start timestep kper="4" kstp="13" mode="normal"


end timestep


start timestep kper="4" kstp="14" mode="normal"


 TEMPERATURE WILL BE SAVED ON UNIT 1079 AT END OF TIME STEP   14, STRESS PERIOD    4


  ENERGY BUDGET FOR ENTIRE MODEL AT END OF TIME STEP   14, STRESS PERIOD   4
  ---------------------------------------------------------------------------------------------------

     CUMULATIVE ENERGY      E       RATES FOR THIS TIME STEP      E/T          PACKAGE NAME    
     ------------------                 ------------------------                     ----------------

           IN:                                      IN:
           ---                                      ---
     STORAGE-CELLBLK =       3.8632E+13       STORAGE-CELLBLK =      671839.7720     EST                              
                 WEL =       1.5346E+14                   WEL =     3511200.0000     SSM_WELL_INJECT                  
                 WEL =           0.0000                   WEL =           0.0000     SSM_WELL_EXTRACT                 
                 RIV =       4.2445E+13                   RIV =      849545.1049     SSM_RIV                          
                RCHA =       1.3222E+13                  RCHA =      264614.0081     SSM_RCH                          
                 CHD =       5.5086E+13                   CHD =     1102492.6967     SSM_CHD                          

            TOTAL IN =       3.0284E+14              TOTAL IN =     6399691.5816

          OUT:                                     OUT:
          ----                                     ----
     STORAGE-CELLBLK =       5.8394E+13       STORAGE-CELLBLK =     1507279.6857     EST                              
                 WEL =           0.0000                   WEL =           0.0000     SSM_WELL_INJECT                  
                 WEL =       1.3366E+14                   WEL =     2675155.2943     SSM_WELL_EXTRACT                 
                 RIV =       5.9487E+13                   RIV =     1190492.1923     SSM_RIV                          
                RCHA =           0.0000                  RCHA =           0.0000     SSM_RCH                          
                 CHD =       5.1304E+13                   CHD =     1026764.4092     SSM_CHD                          

           TOTAL OUT =       3.0284E+14             TOTAL OUT =     6399691.5816

            IN - OUT =          -1.0625              IN - OUT =       6.6124E-08

 PERCENT DISCREPANCY =          -0.00     PERCENT DISCREPANCY =           0.00




         TIME SUMMARY AT END OF TIME STEP   14 IN STRESS PERIOD    4
                    SECONDS     MINUTES      HOURS       DAYS        YEARS
                    -----------------------------------------------------------
   TIME STEP LENGTH 1.31490E+06  21915.      365.25      15.219     4.16667E-02
 STRESS PERIOD TIME 1.84086E+07 3.06810E+05  5113.5      213.06     0.58333    
         TOTAL TIME 4.99662E+07 8.32770E+05  13880.      578.31      1.5833    


end timestep


start timestep kper="5" kstp="1" mode="normal"


 OUTPUT CONTROL FOR STRESS PERIOD 5 IS REPEATED USING SETTINGS FROM A PREVIOUS STRESS PERIOD.

 OPENED gwe.well_inject.spc_perioddata_5.txt
 FILE TYPE:OPEN/CLOSE   UNIT 1085   STATUS:OLD                 
 FORMAT:FORMATTED              ACCESS:SEQUENTIAL          
 ACTION:READ                


end timestep


start timestep kper="5" kstp="2" mode="normal"


end timestep


start timestep kper="5" kstp="3" mode="normal"


end timestep


start timestep kper="5" kstp="4" mode="normal"


end timestep


start timestep kper="5" kstp="5" mode="normal"


end timestep


start timestep kper="5" kstp="6" mode="normal"


end timestep


start timestep kper="5" kstp="7" mode="normal"


end timestep


start timestep kper="5" kstp="8" mode="normal"


end timestep


start timestep kper="5" kstp="9" mode="normal"


end timestep


start timestep kper="5" kstp="10" mode="normal"


 TEMPERATURE WILL BE SAVED ON UNIT 1079 AT END OF TIME STEP   10, STRESS PERIOD    5


  ENERGY BUDGET FOR ENTIRE MODEL AT END OF TIME STEP   10, STRESS PERIOD   5
  ---------------------------------------------------------------------------------------------------

     CUMULATIVE ENERGY      E       RATES FOR THIS TIME STEP      E/T          PACKAGE NAME    
     ------------------                 ------------------------                     ----------------

           IN:                                      IN:
           ---                                      ---
     STORAGE-CELLBLK =       6.5112E+13       STORAGE-CELLBLK =     1772155.3247     EST                              
                 WEL =       1.7764E+14                   WEL =     1839200.0000     SSM_WELL_INJECT                  
                 WEL =           0.0000                   WEL =           0.0000     SSM_WELL_EXTRACT                 
                 RIV =       5.3616E+13                   RIV =      849548.1934     SSM_RIV                          
                RCHA =       1.6701E+13                  RCHA =      264614.0081     SSM_RCH                          
                 CHD =       6.9583E+13                   CHD =     1102494.0553     SSM_CHD                          

            TOTAL IN =       3.8265E+14              TOTAL IN =     5828011.5815

          OUT:                                     OUT:
          ----                                     ----
     STORAGE-CELLBLK =       7.3848E+13       STORAGE-CELLBLK =      929688.1656     EST                              
                 WEL =           0.0000                   WEL =           0.0000     SSM_WELL_INJECT                  
                 WEL =       1.6886E+14                   WEL =     2681071.0164     SSM_WELL_EXTRACT                 
                 RIV =       7.5141E+13                   RIV =     1190488.7572     SSM_RIV                          
                RCHA =           0.0000                  RCHA =           0.0000     SSM_RCH                          
                 CHD =       6.4805E+13                   CHD =     1026763.6423     SSM_CHD                          

           TOTAL OUT =       3.8265E+14             TOTAL OUT =     5828011.5815

            IN - OUT =           1.5000              IN - OUT =      -2.9802E-08

 PERCENT DISCREPANCY =           0.00     PERCENT DISCREPANCY =          -0.00




         TIME SUMMARY AT END OF TIME STEP   10 IN STRESS PERIOD    5
                    SECONDS     MINUTES      HOURS       DAYS        YEARS
                    -----------------------------------------------------------
   TIME STEP LENGTH 1.31490E+06  21915.      365.25      15.219     4.16667E-02
 STRESS PERIOD TIME 1.31490E+07 2.19150E+05  3652.5      152.19     0.41667    
         TOTAL TIME 6.31152E+07 1.05192E+06  17532.      730.50      2.0000    


end timestep


start timestep kper="6" kstp="1" mode="normal"


 OUTPUT CONTROL FOR STRESS PERIOD 6 IS REPEATED USING SETTINGS FROM A PREVIOUS STRESS PERIOD.

 OPENED gwe.well_inject.spc_perioddata_6.txt
 FILE TYPE:OPEN/CLOSE   UNIT 1086   STATUS:OLD                 
 FORMAT:FORMATTED              ACCESS:SEQUENTIAL          
 ACTION:READ                


end timestep


start timestep kper="6" kstp="2" mode="normal"


end timestep


start timestep kper="6" kstp="3" mode="normal"


end timestep


start timestep kper="6" kstp="4" mode="normal"


end timestep


start timestep kper="6" kstp="5" mode="normal"


end timestep


start timestep kper="6" kstp="6" mode="normal"


end timestep


start timestep kper="6" kstp="7" mode="normal"


end timestep


start timestep kper="6" kstp="8" mode="normal"


end timestep


start timestep kper="6" kstp="9" mode="normal"


end timestep


start timestep kper="6" kstp="10" mode="normal"


end timestep


start timestep kper="6" kstp="11" mode="normal"


end timestep


start timestep kper="6" kstp="12" mode="normal"


end timestep


start timestep kper="6" kstp="13" mode="normal"


end timestep


start timestep kper="6" kstp="14" mode="normal"


 TEMPERATURE WILL BE SAVED ON UNIT 1079 AT END OF TIME STEP   14, STRESS PERIOD    6


  ENERGY BUDGET FOR ENTIRE MODEL AT END OF TIME STEP   14, STRESS PERIOD   6
  ---------------------------------------------------------------------------------------------------

     CUMULATIVE ENERGY      E       RATES FOR THIS TIME STEP      E/T          PACKAGE NAME    
     ------------------                 ------------------------                     ----------------

           IN:                                      IN:
           ---                                      ---
     STORAGE-CELLBLK =       8.5292E+13       STORAGE-CELLBLK =      666708.9736     EST                              
                 WEL =       2.4228E+14                   WEL =     3511200.0000     SSM_WELL_INJECT                  
                 WEL =           0.0000                   WEL =           0.0000     SSM_WELL_EXTRACT                 
                 RIV =       6.9255E+13                   RIV =      849553.4822     SSM_RIV                          
                RCHA =       2.1572E+13                  RCHA =      264614.0081     SSM_RCH                          
                 CHD =       8.9879E+13                   CHD =     1102495.8813     SSM_CHD                          

            TOTAL IN =       5.0827E+14              TOTAL IN =     6394572.3452

          OUT:                                     OUT:
          ----                                     ----
     STORAGE-CELLBLK =       1.0887E+14       STORAGE-CELLBLK =     1446213.7402     EST                              
                 WEL =           0.0000                   WEL =           0.0000     SSM_WELL_INJECT                  
                 WEL =       2.1864E+14                   WEL =     2731112.6017     SSM_WELL_EXTRACT                 
                 RIV =       9.7056E+13                   RIV =     1190483.2904     SSM_RIV                          
                RCHA =           0.0000                  RCHA =           0.0000     SSM_RCH                          
                 CHD =       8.3706E+13                   CHD =     1026762.7129     SSM_CHD                          

           TOTAL OUT =       5.0827E+14             TOTAL OUT =     6394572.3452

            IN - OUT =           0.6875              IN - OUT =      -1.3132E-07

 PERCENT DISCREPANCY =           0.00     PERCENT DISCREPANCY =          -0.00




         TIME SUMMARY AT END OF TIME STEP   14 IN STRESS PERIOD    6
                    SECONDS     MINUTES      HOURS       DAYS        YEARS
                    -----------------------------------------------------------
   TIME STEP LENGTH 1.31490E+06  21915.      365.25      15.219     4.16667E-02
 STRESS PERIOD TIME 1.84086E+07 3.06810E+05  5113.5      213.06     0.58333    
         TOTAL TIME 8.15238E+07 1.35873E+06  22646.      943.56      2.5833    


end timestep


start timestep kper="7" kstp="1" mode="normal"


 OUTPUT CONTROL FOR STRESS PERIOD 7 IS REPEATED USING SETTINGS FROM A PREVIOUS STRESS PERIOD.

 OPENED gwe.well_inject.spc_perioddata_7.txt
 FILE TYPE:OPEN/CLOSE   UNIT 1087   STATUS:OLD                 
 FORMAT:FORMATTED              ACCESS:SEQUENTIAL          
 ACTION:READ                


end timestep


start timestep kper="7" kstp="2" mode="normal"


end timestep


start timestep kper="7" kstp="3" mode="normal"


end timestep


start timestep kper="7" kstp="4" mode="normal"


end timestep


start timestep kper="7" kstp="5" mode="normal"


end timestep


start timestep kper="7" kstp="6" mode="normal"


end timestep


start timestep kper="7" kstp="7" mode="normal"


end timestep


start timestep kper="7" kstp="8" mode="normal"


end timestep


start timestep kper="7" kstp="9" mode="normal"


end timestep


start timestep kper="7" kstp="10" mode="normal"


 TEMPERATURE WILL BE SAVED ON UNIT 1079 AT END OF TIME STEP   10, STRESS PERIOD    7


  ENERGY BUDGET FOR ENTIRE MODEL AT END OF TIME STEP   10, STRESS PERIOD   7
  ---------------------------------------------------------------------------------------------------

     CUMULATIVE ENERGY      E       RATES FOR THIS TIME STEP      E/T          PACKAGE NAME    
     ------------------                 ------------------------                     ----------------

           IN:                                      IN:
           ---                                      ---
     STORAGE-CELLBLK =       1.1110E+14       STORAGE-CELLBLK =     1697377.3676     EST                              
                 WEL =       2.6646E+14                   WEL =     1839200.0000     SSM_WELL_INJECT                  
                 WEL =           0.0000                   WEL =           0.0000     SSM_WELL_EXTRACT                 
                 RIV =       8.0426E+13                   RIV =      849557.6700     SSM_RIV                          
                RCHA =       2.5052E+13                  RCHA =      264614.0081     SSM_RCH                          
                 CHD =       1.0438E+14                   CHD =     1102497.1643     SSM_CHD                          

            TOTAL IN =       5.8741E+14              TOTAL IN =     5753246.2100

          OUT:                                     OUT:
          ----                                     ----
     STORAGE-CELLBLK =       1.2278E+14       STORAGE-CELLBLK =      790888.8640     EST                              
                 WEL =           0.0000                   WEL =           0.0000     SSM_WELL_INJECT                  
                 WEL =       2.5472E+14                   WEL =     2745116.2347     SSM_WELL_EXTRACT                 
                 RIV =       1.1271E+14                   RIV =     1190479.0272     SSM_RIV                          
                RCHA =           0.0000                  RCHA =           0.0000     SSM_RCH                          
                 CHD =       9.7207E+13                   CHD =     1026762.0842     SSM_CHD                          

           TOTAL OUT =       5.8741E+14             TOTAL OUT =     5753246.2100

            IN - OUT =           2.1250              IN - OUT =      -8.4937E-07

 PERCENT DISCREPANCY =           0.00     PERCENT DISCREPANCY =          -0.00




         TIME SUMMARY AT END OF TIME STEP   10 IN STRESS PERIOD    7
                    SECONDS     MINUTES      HOURS       DAYS        YEARS
                    -----------------------------------------------------------
   TIME STEP LENGTH 1.31490E+06  21915.      365.25      15.219     4.16667E-02
 STRESS PERIOD TIME 1.31490E+07 2.19150E+05  3652.5      152.19     0.41667    
         TOTAL TIME 9.46728E+07 1.57788E+06  26298.      1095.8      3.0000    


end timestep


start timestep kper="8" kstp="1" mode="normal"


 OUTPUT CONTROL FOR STRESS PERIOD 8 IS REPEATED USING SETTINGS FROM A PREVIOUS STRESS PERIOD.

 OPENED gwe.well_inject.spc_perioddata_8.txt
 FILE TYPE:OPEN/CLOSE   UNIT 1088   STATUS:OLD                 
 FORMAT:FORMATTED              ACCESS:SEQUENTIAL          
 ACTION:READ                


end timestep


start timestep kper="8" kstp="2" mode="normal"


end timestep


start timestep kper="8" kstp="3" mode="normal"


end timestep


start timestep kper="8" kstp="4" mode="normal"


end timestep


start timestep kper="8" kstp="5" mode="normal"


end timestep


start timestep kper="8" kstp="6" mode="normal"


end timestep


start timestep kper="8" kstp="7" mode="normal"


end timestep


start timestep kper="8" kstp="8" mode="normal"


end timestep


start timestep kper="8" kstp="9" mode="normal"


end timestep


start timestep kper="8" kstp="10" mode="normal"


end timestep


start timestep kper="8" kstp="11" mode="normal"


end timestep


start timestep kper="8" kstp="12" mode="normal"


end timestep


start timestep kper="8" kstp="13" mode="normal"


end timestep


start timestep kper="8" kstp="14" mode="normal"


 TEMPERATURE WILL BE SAVED ON UNIT 1079 AT END OF TIME STEP   14, STRESS PERIOD    8


  ENERGY BUDGET FOR ENTIRE MODEL AT END OF TIME STEP   14, STRESS PERIOD   8
  ---------------------------------------------------------------------------------------------------

     CUMULATIVE ENERGY      E       RATES FOR THIS TIME STEP      E/T          PACKAGE NAME    
     ------------------                 ------------------------                     ----------------

           IN:                                      IN:
           ---                                      ---
     STORAGE-CELLBLK =       1.3013E+14       STORAGE-CELLBLK =      631977.1297     EST                              
                 WEL =       3.3110E+14                   WEL =     3511200.0000     SSM_WELL_INJECT                  
                 WEL =           0.0000                   WEL =           0.0000     SSM_WELL_EXTRACT                 
                 RIV =       9.6065E+13                   RIV =      849563.8396     SSM_RIV                          
                RCHA =       2.9923E+13                  RCHA =      264614.0081     SSM_RCH                          
                 CHD =       1.2467E+14                   CHD =     1102498.9495     SSM_CHD                          

            TOTAL IN =       7.1188E+14              TOTAL IN =     6359853.9269

          OUT:                                     OUT:
          ----                                     ----
     STORAGE-CELLBLK =       1.5607E+14       STORAGE-CELLBLK =     1408477.9025     EST                              
                 WEL =           0.0000                   WEL =           0.0000     SSM_WELL_INJECT                  
                 WEL =       3.0508E+14                   WEL =     2734142.0589     SSM_WELL_EXTRACT                 
                 RIV =       1.3462E+14                   RIV =     1190472.7512     SSM_RIV                          
                RCHA =           0.0000                  RCHA =           0.0000     SSM_RCH                          
                 CHD =       1.1611E+14                   CHD =     1026761.2143     SSM_CHD                          

           TOTAL OUT =       7.1188E+14             TOTAL OUT =     6359853.9269

            IN - OUT =          -3.2500              IN - OUT =      -2.6543E-07

 PERCENT DISCREPANCY =          -0.00     PERCENT DISCREPANCY =          -0.00




         TIME SUMMARY AT END OF TIME STEP   14 IN STRESS PERIOD    8
                    SECONDS     MINUTES      HOURS       DAYS        YEARS
                    -----------------------------------------------------------
   TIME STEP LENGTH 1.31490E+06  21915.      365.25      15.219     4.16667E-02
 STRESS PERIOD TIME 1.84086E+07 3.06810E+05  5113.5      213.06     0.58333    
         TOTAL TIME 1.13081E+08 1.88469E+06  31412.      1308.8      3.5833    


end timestep


start timestep kper="9" kstp="1" mode="normal"


 OUTPUT CONTROL FOR STRESS PERIOD 9 IS REPEATED USING SETTINGS FROM A PREVIOUS STRESS PERIOD.

 OPENED gwe.well_inject.spc_perioddata_9.txt
 FILE TYPE:OPEN/CLOSE   UNIT 1089   STATUS:OLD                 
 FORMAT:FORMATTED              ACCESS:SEQUENTIAL          
 ACTION:READ                


end timestep


start timestep kper="9" kstp="2" mode="normal"


end timestep


start timestep kper="9" kstp="3" mode="normal"


end timestep


start timestep kper="9" kstp="4" mode="normal"


end timestep


start timestep kper="9" kstp="5" mode="normal"


end timestep


start timestep kper="9" kstp="6" mode="normal"


end timestep


start timestep kper="9" kstp="7" mode="normal"


end timestep


start timestep kper="9" kstp="8" mode="normal"


end timestep


start timestep kper="9" kstp="9" mode="normal"


end timestep


start timestep kper="9" kstp="10" mode="normal"


 TEMPERATURE WILL BE SAVED ON UNIT 1079 AT END OF TIME STEP   10, STRESS PERIOD    9


  ENERGY BUDGET FOR ENTIRE MODEL AT END OF TIME STEP   10, STRESS PERIOD   9
  ---------------------------------------------------------------------------------------------------

     CUMULATIVE ENERGY      E       RATES FOR THIS TIME STEP      E/T          PACKAGE NAME    
     ------------------                 ------------------------                     ----------------

           IN:                                      IN:
           ---                                      ---
     STORAGE-CELLBLK =       1.5573E+14       STORAGE-CELLBLK =     1692447.6997     EST                              
                 WEL =       3.5528E+14                   WEL =     1839200.0000     SSM_WELL_INJECT                  
                 WEL =           0.0000                   WEL =           0.0000     SSM_WELL_EXTRACT                 
                 RIV =       1.0724E+14                   RIV =      849568.3583     SSM_RIV                          
                RCHA =       3.3402E+13                  RCHA =      264614.0081     SSM_RCH                          
                 CHD =       1.3917E+14                   CHD =     1102500.2187     SSM_CHD                          

            TOTAL IN =       7.9081E+14              TOTAL IN =     5748330.2847

          OUT:                                     OUT:
          ----                                     ----
     STORAGE-CELLBLK =       1.6986E+14       STORAGE-CELLBLK =      796202.7208     EST                              
                 WEL =           0.0000                   WEL =           0.0000     SSM_WELL_INJECT                  
                 WEL =       3.4106E+14                   WEL =     2734898.8254     SSM_WELL_EXTRACT                 
                 RIV =       1.5028E+14                   RIV =     1190468.1450     SSM_RIV                          
                RCHA =           0.0000                  RCHA =           0.0000     SSM_RCH                          
                 CHD =       1.2961E+14                   CHD =     1026760.5936     SSM_CHD                          

           TOTAL OUT =       7.9081E+14             TOTAL OUT =     5748330.2847

            IN - OUT =          -4.8750              IN - OUT =      -1.0105E-06

 PERCENT DISCREPANCY =          -0.00     PERCENT DISCREPANCY =          -0.00




         TIME SUMMARY AT END OF TIME STEP   10 IN STRESS PERIOD    9
                    SECONDS     MINUTES      HOURS       DAYS        YEARS
                    -----------------------------------------------------------
   TIME STEP LENGTH 1.31490E+06  21915.      365.25      15.219     4.16667E-02
 STRESS PERIOD TIME 1.31490E+07 2.19150E+05  3652.5      152.19     0.41667    
         TOTAL TIME 1.26230E+08 2.10384E+06  35064.      1461.0      4.0000    


end timestep


start timestep kper="10" kstp="1" mode="normal"


 OUTPUT CONTROL FOR STRESS PERIOD 10 IS REPEATED USING SETTINGS FROM A PREVIOUS STRESS PERIOD.

 OPENED gwe.well_inject.spc_perioddata_10.txt
 FILE TYPE:OPEN/CLOSE   UNIT 1090   STATUS:OLD                 
 FORMAT:FORMATTED              ACCESS:SEQUENTIAL          
 ACTION:READ                


end timestep


start timestep kper="10" kstp="2" mode="normal"


end timestep


start timestep kper="10" kstp="3" mode="normal"


end timestep


start timestep kper="10" kstp="4" mode="normal"


end timestep


start timestep kper="10" kstp="5" mode="normal"


end timestep


start timestep kper="10" kstp="6" mode="normal"


end timestep


start timestep kper="10" kstp="7" mode="normal"


end timestep


start timestep kper="10" kstp="8" mode="normal"


end timestep


start timestep kper="10" kstp="9" mode="normal"


end timestep


start timestep kper="10" kstp="10" mode="normal"


end timestep


start timestep kper="10" kstp="11" mode="normal"


end timestep


start timestep kper="10" kstp="12" mode="normal"


end timestep


start timestep kper="10" kstp="13" mode="normal"


end timestep


start timestep kper="10" kstp="14" mode="normal"


 TEMPERATURE WILL BE SAVED ON UNIT 1079 AT END OF TIME STEP   14, STRESS PERIOD   10


  ENERGY BUDGET FOR ENTIRE MODEL AT END OF TIME STEP   14, STRESS PERIOD  10
  ---------------------------------------------------------------------------------------------------

     CUMULATIVE ENERGY      E       RATES FOR THIS TIME STEP      E/T          PACKAGE NAME    
     ------------------                 ------------------------                     ----------------

           IN:                                      IN:
           ---                                      ---
     STORAGE-CELLBLK =       1.7456E+14       STORAGE-CELLBLK =      613716.9432     EST                              
                 WEL =       4.1992E+14                   WEL =     3511200.0000     SSM_WELL_INJECT                  
                 WEL =           0.0000                   WEL =           0.0000     SSM_WELL_EXTRACT                 
                 RIV =       1.2288E+14                   RIV =      849574.7357     SSM_RIV                          
                RCHA =       3.8274E+13                  RCHA =      264614.0081     SSM_RCH                          
                 CHD =       1.5946E+14                   CHD =     1102501.9838     SSM_CHD                          

            TOTAL IN =       9.1509E+14              TOTAL IN =     6341607.6707

          OUT:                                     OUT:
          ----                                     ----
     STORAGE-CELLBLK =       2.0308E+14       STORAGE-CELLBLK =     1392957.7753     EST                              
                 WEL =           0.0000                   WEL =           0.0000     SSM_WELL_INJECT                  
                 WEL =       3.9131E+14                   WEL =     2731428.5338     SSM_WELL_EXTRACT                 
                 RIV =       1.7219E+14                   RIV =     1190461.6361     SSM_RIV                          
                RCHA =           0.0000                  RCHA =           0.0000     SSM_RCH                          
                 CHD =       1.4851E+14                   CHD =     1026759.7255     SSM_CHD                          

           TOTAL OUT =       9.1509E+14             TOTAL OUT =     6341607.6707

            IN - OUT =          -2.8750              IN - OUT =       1.4342E-07

 PERCENT DISCREPANCY =          -0.00     PERCENT DISCREPANCY =           0.00




         TIME SUMMARY AT END OF TIME STEP   14 IN STRESS PERIOD   10
                    SECONDS     MINUTES      HOURS       DAYS        YEARS
                    -----------------------------------------------------------
   TIME STEP LENGTH 1.31490E+06  21915.      365.25      15.219     4.16667E-02
 STRESS PERIOD TIME 1.84086E+07 3.06810E+05  5113.5      213.06     0.58333    
         TOTAL TIME 1.44639E+08 2.41065E+06  40178.      1674.1      4.5833    


end timestep


start timestep kper="11" kstp="1" mode="normal"


 OUTPUT CONTROL FOR STRESS PERIOD 11 IS REPEATED USING SETTINGS FROM A PREVIOUS STRESS PERIOD.

 OPENED gwe.well_inject.spc_perioddata_11.txt
 FILE TYPE:OPEN/CLOSE   UNIT 1091   STATUS:OLD                 
 FORMAT:FORMATTED              ACCESS:SEQUENTIAL          
 ACTION:READ                


end timestep


start timestep kper="11" kstp="2" mode="normal"


end timestep


start timestep kper="11" kstp="3" mode="normal"


end timestep


start timestep kper="11" kstp="4" mode="normal"


end timestep


start timestep kper="11" kstp="5" mode="normal"


end timestep


start timestep kper="11" kstp="6" mode="normal"


end timestep


start timestep kper="11" kstp="7" mode="normal"


end timestep


start timestep kper="11" kstp="8" mode="normal"


end timestep


start timestep kper="11" kstp="9" mode="normal"


end timestep


start timestep kper="11" kstp="10" mode="normal"


 TEMPERATURE WILL BE SAVED ON UNIT 1079 AT END OF TIME STEP   10, STRESS PERIOD   11


  ENERGY BUDGET FOR ENTIRE MODEL AT END OF TIME STEP   10, STRESS PERIOD  11
  ---------------------------------------------------------------------------------------------------

     CUMULATIVE ENERGY      E       RATES FOR THIS TIME STEP      E/T          PACKAGE NAME    
     ------------------                 ------------------------                     ----------------

           IN:                                      IN:
           ---                                      ---
     STORAGE-CELLBLK =       1.9992E+14       STORAGE-CELLBLK =     1677254.3961     EST                              
                 WEL =       4.4410E+14                   WEL =     1839200.0000     SSM_WELL_INJECT                  
                 WEL =           0.0000                   WEL =           0.0000     SSM_WELL_EXTRACT                 
                 RIV =       1.3405E+14                   RIV =      849579.2775     SSM_RIV                          
                RCHA =       4.1753E+13                  RCHA =      264614.0081     SSM_RCH                          
                 CHD =       1.7396E+14                   CHD =     1102503.2327     SSM_CHD                          

            TOTAL IN =       9.9378E+14              TOTAL IN =     5733150.9143

          OUT:                                     OUT:
          ----                                     ----
     STORAGE-CELLBLK =       2.1665E+14       STORAGE-CELLBLK =      780638.1039     EST                              
                 WEL =           0.0000                   WEL =           0.0000     SSM_WELL_INJECT                  
                 WEL =       4.2728E+14                   WEL =     2735296.7072     SSM_WELL_EXTRACT                 
                 RIV =       1.8785E+14                   RIV =     1190456.9949     SSM_RIV                          
                RCHA =           0.0000                  RCHA =           0.0000     SSM_RCH                          
                 CHD =       1.6201E+14                   CHD =     1026759.1083     SSM_CHD                          

           TOTAL OUT =       9.9378E+14             TOTAL OUT =     5733150.9143

            IN - OUT =           0.1250              IN - OUT =      -1.4435E-07

 PERCENT DISCREPANCY =           0.00     PERCENT DISCREPANCY =          -0.00




         TIME SUMMARY AT END OF TIME STEP   10 IN STRESS PERIOD   11
                    SECONDS     MINUTES      HOURS       DAYS        YEARS
                    -----------------------------------------------------------
   TIME STEP LENGTH 1.31490E+06  21915.      365.25      15.219     4.16667E-02
 STRESS PERIOD TIME 1.31490E+07 2.19150E+05  3652.5      152.19     0.41667    
         TOTAL TIME 1.57788E+08 2.62980E+06  43830.      1826.3      5.0000    


end timestep


start timestep kper="12" kstp="1" mode="normal"


 OUTPUT CONTROL FOR STRESS PERIOD 12 IS REPEATED USING SETTINGS FROM A PREVIOUS STRESS PERIOD.

 OPENED gwe.well_inject.spc_perioddata_12.txt
 FILE TYPE:OPEN/CLOSE   UNIT 1092   STATUS:OLD                 
 FORMAT:FORMATTED              ACCESS:SEQUENTIAL          
 ACTION:READ                


end timestep


start timestep kper="12" kstp="2" mode="normal"


end timestep


start timestep kper="12" kstp="3" mode="normal"


end timestep


start timestep kper="12" kstp="4" mode="normal"


end timestep


start timestep kper="12" kstp="5" mode="normal"


end timestep


start timestep kper="12" kstp="6" mode="normal"


end timestep


start timestep kper="12" kstp="7" mode="normal"


end timestep


start timestep kper="12" kstp="8" mode="normal"


end timestep


start timestep kper="12" kstp="9" mode="normal"


end timestep


start timestep kper="12" kstp="10" mode="normal"


end timestep


start timestep kper="12" kstp="11" mode="normal"


end timestep


start timestep kper="12" kstp="12" mode="normal"


end timestep


start timestep kper="12" kstp="13" mode="normal"


end timestep


start timestep kper="12" kstp="14" mode="normal"


 TEMPERATURE WILL BE SAVED ON UNIT 1079 AT END OF TIME STEP   14, STRESS PERIOD   12


  ENERGY BUDGET FOR ENTIRE MODEL AT END OF TIME STEP   14, STRESS PERIOD  12
  ---------------------------------------------------------------------------------------------------

     CUMULATIVE ENERGY      E       RATES FOR THIS TIME STEP      E/T          PACKAGE NAME    
     ------------------                 ------------------------                     ----------------

           IN:                                      IN:
           ---                                      ---
     STORAGE-CELLBLK =       2.1859E+14       STORAGE-CELLBLK =      606533.4996     EST                              
                 WEL =       5.0874E+14                   WEL =     3511200.0000     SSM_WELL_INJECT                  
                 WEL =           0.0000                   WEL =           0.0000     SSM_WELL_EXTRACT                 
                 RIV =       1.4969E+14                   RIV =      849585.5796     SSM_RIV                          
                RCHA =       4.6624E+13                  RCHA =      264614.0081     SSM_RCH                          
                 CHD =       1.9426E+14                   CHD =     1102504.9593     SSM_CHD                          

            TOTAL IN =       1.1179E+15              TOTAL IN =     6334438.0466

          OUT:                                     OUT:
          ----                                     ----
     STORAGE-CELLBLK =       2.4967E+14       STORAGE-CELLBLK =     1384400.0592     EST                              
                 WEL =           0.0000                   WEL =           0.0000     SSM_WELL_INJECT                  
                 WEL =       4.7755E+14                   WEL =     2732829.1779     SSM_WELL_EXTRACT                 
                 RIV =       2.0976E+14                   RIV =     1190450.5575     SSM_RIV                          
                RCHA =           0.0000                  RCHA =           0.0000     SSM_RCH                          
                 CHD =       1.8091E+14                   CHD =     1026758.2521     SSM_CHD                          

           TOTAL OUT =       1.1179E+15             TOTAL OUT =     6334438.0466

            IN - OUT =          -0.7500              IN - OUT =      -8.5682E-08

 PERCENT DISCREPANCY =          -0.00     PERCENT DISCREPANCY =          -0.00




         TIME SUMMARY AT END OF TIME STEP   14 IN STRESS PERIOD   12
                    SECONDS     MINUTES      HOURS       DAYS        YEARS
                    -----------------------------------------------------------
   TIME STEP LENGTH 1.31490E+06  21915.      365.25      15.219     4.16667E-02
 STRESS PERIOD TIME 1.84086E+07 3.06810E+05  5113.5      213.06     0.58333    
         TOTAL TIME 1.76197E+08 2.93661E+06  48944.      2039.3      5.5833    


end timestep


start timestep kper="13" kstp="1" mode="normal"


 OUTPUT CONTROL FOR STRESS PERIOD 13 IS REPEATED USING SETTINGS FROM A PREVIOUS STRESS PERIOD.

 OPENED gwe.well_inject.spc_perioddata_13.txt
 FILE TYPE:OPEN/CLOSE   UNIT 1093   STATUS:OLD                 
 FORMAT:FORMATTED              ACCESS:SEQUENTIAL          
 ACTION:READ                


end timestep


start timestep kper="13" kstp="2" mode="normal"


end timestep


start timestep kper="13" kstp="3" mode="normal"


end timestep


start timestep kper="13" kstp="4" mode="normal"


end timestep


start timestep kper="13" kstp="5" mode="normal"


end timestep


start timestep kper="13" kstp="6" mode="normal"


end timestep


start timestep kper="13" kstp="7" mode="normal"


end timestep


start timestep kper="13" kstp="8" mode="normal"


end timestep


start timestep kper="13" kstp="9" mode="normal"


end timestep


start timestep kper="13" kstp="10" mode="normal"


 TEMPERATURE WILL BE SAVED ON UNIT 1079 AT END OF TIME STEP   10, STRESS PERIOD   13


  ENERGY BUDGET FOR ENTIRE MODEL AT END OF TIME STEP   10, STRESS PERIOD  13
  ---------------------------------------------------------------------------------------------------

     CUMULATIVE ENERGY      E       RATES FOR THIS TIME STEP      E/T          PACKAGE NAME    
     ------------------                 ------------------------                     ----------------

           IN:                                      IN:
           ---                                      ---
     STORAGE-CELLBLK =       2.4385E+14       STORAGE-CELLBLK =     1669188.6204     EST                              
                 WEL =       5.3292E+14                   WEL =     1839200.0000     SSM_WELL_INJECT                  
                 WEL =           0.0000                   WEL =           0.0000     SSM_WELL_EXTRACT                 
                 RIV =       1.6086E+14                   RIV =      849590.0159     SSM_RIV                          
                RCHA =       5.0103E+13                  RCHA =      264614.0081     SSM_RCH                          
                 CHD =       2.0875E+14                   CHD =     1102506.1739     SSM_CHD                          

            TOTAL IN =       1.1965E+15              TOTAL IN =     5725098.8183

          OUT:                                     OUT:
          ----                                     ----
     STORAGE-CELLBLK =       2.6312E+14       STORAGE-CELLBLK =      771148.6976     EST                              
                 WEL =           0.0000                   WEL =           0.0000     SSM_WELL_INJECT                  
                 WEL =       5.1354E+14                   WEL =     2736746.4459     SSM_WELL_EXTRACT                 
                 RIV =       2.2541E+14                   RIV =     1190446.0264     SSM_RIV                          
                RCHA =           0.0000                  RCHA =           0.0000     SSM_RCH                          
                 CHD =       1.9441E+14                   CHD =     1026757.6484     SSM_CHD                          

           TOTAL OUT =       1.1965E+15             TOTAL OUT =     5725098.8183

            IN - OUT =           1.7500              IN - OUT =      -9.8720E-08

 PERCENT DISCREPANCY =           0.00     PERCENT DISCREPANCY =          -0.00




         TIME SUMMARY AT END OF TIME STEP   10 IN STRESS PERIOD   13
                    SECONDS     MINUTES      HOURS       DAYS        YEARS
                    -----------------------------------------------------------
   TIME STEP LENGTH 1.31490E+06  21915.      365.25      15.219     4.16667E-02
 STRESS PERIOD TIME 1.31490E+07 2.19150E+05  3652.5      152.19     0.41667    
         TOTAL TIME 1.89346E+08 3.15576E+06  52596.      2191.5      6.0000    


end timestep


start timestep kper="14" kstp="1" mode="normal"


 OUTPUT CONTROL FOR STRESS PERIOD 14 IS REPEATED USING SETTINGS FROM A PREVIOUS STRESS PERIOD.

 OPENED gwe.well_inject.spc_perioddata_14.txt
 FILE TYPE:OPEN/CLOSE   UNIT 1094   STATUS:OLD                 
 FORMAT:FORMATTED              ACCESS:SEQUENTIAL          
 ACTION:READ                


end timestep


start timestep kper="14" kstp="2" mode="normal"


end timestep


start timestep kper="14" kstp="3" mode="normal"


end timestep


start timestep kper="14" kstp="4" mode="normal"


end timestep


start timestep kper="14" kstp="5" mode="normal"


end timestep


start timestep kper="14" kstp="6" mode="normal"


end timestep


start timestep kper="14" kstp="7" mode="normal"


end timestep


start timestep kper="14" kstp="8" mode="normal"


end timestep


start timestep kper="14" kstp="9" mode="normal"


end timestep


start timestep kper="14" kstp="10" mode="normal"


end timestep


start timestep kper="14" kstp="11" mode="normal"


end timestep


start timestep kper="14" kstp="12" mode="normal"


end timestep


start timestep kper="14" kstp="13" mode="normal"


end timestep


start timestep kper="14" kstp="14" mode="normal"


 TEMPERATURE WILL BE SAVED ON UNIT 1079 AT END OF TIME STEP   14, STRESS PERIOD   14


  ENERGY BUDGET FOR ENTIRE MODEL AT END OF TIME STEP   14, STRESS PERIOD  14
  ---------------------------------------------------------------------------------------------------

     CUMULATIVE ENERGY      E       RATES FOR THIS TIME STEP      E/T          PACKAGE NAME    
     ------------------                 ------------------------                     ----------------

           IN:                                      IN:
           ---                                      ---
     STORAGE-CELLBLK =       2.6239E+14       STORAGE-CELLBLK =      601218.3069     EST                              
                 WEL =       5.9756E+14                   WEL =     3511200.0000     SSM_WELL_INJECT                  
                 WEL =           0.0000                   WEL =           0.0000     SSM_WELL_EXTRACT                 
                 RIV =       1.7650E+14                   RIV =      849596.1202     SSM_RIV                          
                RCHA =       5.4975E+13                  RCHA =      264614.0081     SSM_RCH                          
                 CHD =       2.2905E+14                   CHD =     1102507.8450     SSM_CHD                          

            TOTAL IN =       1.3205E+15              TOTAL IN =     6329136.2802

          OUT:                                     OUT:
          ----                                     ----
     STORAGE-CELLBLK =       2.9599E+14       STORAGE-CELLBLK =     1377691.9200     EST                              
                 WEL =           0.0000                   WEL =           0.0000     SSM_WELL_INJECT                  
                 WEL =       5.6383E+14                   WEL =     2734247.7483     SSM_WELL_EXTRACT                 
                 RIV =       2.4733E+14                   RIV =     1190439.7951     SSM_RIV                          
                RCHA =           0.0000                  RCHA =           0.0000     SSM_RCH                          
                 CHD =       2.1331E+14                   CHD =     1026756.8169     SSM_CHD                          

           TOTAL OUT =       1.3205E+15             TOTAL OUT =     6329136.2802

            IN - OUT =           0.7500              IN - OUT =      -6.9849E-08

 PERCENT DISCREPANCY =           0.00     PERCENT DISCREPANCY =          -0.00




         TIME SUMMARY AT END OF TIME STEP   14 IN STRESS PERIOD   14
                    SECONDS     MINUTES      HOURS       DAYS        YEARS
                    -----------------------------------------------------------
   TIME STEP LENGTH 1.31490E+06  21915.      365.25      15.219     4.16667E-02
 STRESS PERIOD TIME 1.84086E+07 3.06810E+05  5113.5      213.06     0.58333    
         TOTAL TIME 2.07754E+08 3.46257E+06  57710.      2404.6      6.5833    


end timestep


start timestep kper="15" kstp="1" mode="normal"


 OUTPUT CONTROL FOR STRESS PERIOD 15 IS REPEATED USING SETTINGS FROM A PREVIOUS STRESS PERIOD.

 OPENED gwe.well_inject.spc_perioddata_15.txt
 FILE TYPE:OPEN/CLOSE   UNIT 1095   STATUS:OLD                 
 FORMAT:FORMATTED              ACCESS:SEQUENTIAL          
 ACTION:READ                


end timestep


start timestep kper="15" kstp="2" mode="normal"


end timestep


start timestep kper="15" kstp="3" mode="normal"


end timestep


start timestep kper="15" kstp="4" mode="normal"


end timestep


start timestep kper="15" kstp="5" mode="normal"


end timestep


start timestep kper="15" kstp="6" mode="normal"


end timestep


start timestep kper="15" kstp="7" mode="normal"


end timestep


start timestep kper="15" kstp="8" mode="normal"


end timestep


start timestep kper="15" kstp="9" mode="normal"


end timestep


start timestep kper="15" kstp="10" mode="normal"


 TEMPERATURE WILL BE SAVED ON UNIT 1079 AT END OF TIME STEP   10, STRESS PERIOD   15


  ENERGY BUDGET FOR ENTIRE MODEL AT END OF TIME STEP   10, STRESS PERIOD  15
  ---------------------------------------------------------------------------------------------------

     CUMULATIVE ENERGY      E       RATES FOR THIS TIME STEP      E/T          PACKAGE NAME    
     ------------------                 ------------------------                     ----------------

           IN:                                      IN:
           ---                                      ---
     STORAGE-CELLBLK =       2.8758E+14       STORAGE-CELLBLK =     1664572.3879     EST                              
                 WEL =       6.2174E+14                   WEL =     1839200.0000     SSM_WELL_INJECT                  
                 WEL =           0.0000                   WEL =           0.0000     SSM_WELL_EXTRACT                 
                 RIV =       1.8767E+14                   RIV =      849600.3973     SSM_RIV                          
                RCHA =       5.8454E+13                  RCHA =      264614.0081     SSM_RCH                          
                 CHD =       2.4354E+14                   CHD =     1102509.0160     SSM_CHD                          

            TOTAL IN =       1.3990E+15              TOTAL IN =     5720495.8093

          OUT:                                     OUT:
          ----                                     ----
     STORAGE-CELLBLK =       3.0936E+14       STORAGE-CELLBLK =      765186.3946     EST                              
                 WEL =           0.0000                   WEL =           0.0000     SSM_WELL_INJECT                  
                 WEL =       5.9984E+14                   WEL =     2738117.7440     SSM_WELL_EXTRACT                 
                 RIV =       2.6298E+14                   RIV =     1190435.4367     SSM_RIV                          
                RCHA =           0.0000                  RCHA =           0.0000     SSM_RCH                          
                 CHD =       2.2682E+14                   CHD =     1026756.2340     SSM_CHD                          

           TOTAL OUT =       1.3990E+15             TOTAL OUT =     5720495.8093

            IN - OUT =           3.2500              IN - OUT =      -1.7509E-07

 PERCENT DISCREPANCY =           0.00     PERCENT DISCREPANCY =          -0.00




         TIME SUMMARY AT END OF TIME STEP   10 IN STRESS PERIOD   15
                    SECONDS     MINUTES      HOURS       DAYS        YEARS
                    -----------------------------------------------------------
   TIME STEP LENGTH 1.31490E+06  21915.      365.25      15.219     4.16667E-02
 STRESS PERIOD TIME 1.31490E+07 2.19150E+05  3652.5      152.19     0.41667    
         TOTAL TIME 2.20903E+08 3.68172E+06  61362.      2556.8      7.0000    


end timestep


start timestep kper="16" kstp="1" mode="normal"


 OUTPUT CONTROL FOR STRESS PERIOD 16 IS REPEATED USING SETTINGS FROM A PREVIOUS STRESS PERIOD.

 OPENED gwe.well_inject.spc_perioddata_16.txt
 FILE TYPE:OPEN/CLOSE   UNIT 1096   STATUS:OLD                 
 FORMAT:FORMATTED              ACCESS:SEQUENTIAL          
 ACTION:READ                


end timestep


start timestep kper="16" kstp="2" mode="normal"


end timestep


start timestep kper="16" kstp="3" mode="normal"


end timestep


start timestep kper="16" kstp="4" mode="normal"


end timestep


start timestep kper="16" kstp="5" mode="normal"


end timestep


start timestep kper="16" kstp="6" mode="normal"


end timestep


start timestep kper="16" kstp="7" mode="normal"


end timestep


start timestep kper="16" kstp="8" mode="normal"


end timestep


start timestep kper="16" kstp="9" mode="normal"


end timestep


start timestep kper="16" kstp="10" mode="normal"


end timestep


start timestep kper="16" kstp="11" mode="normal"


end timestep


start timestep kper="16" kstp="12" mode="normal"


end timestep


start timestep kper="16" kstp="13" mode="normal"


end timestep


start timestep kper="16" kstp="14" mode="normal"


 TEMPERATURE WILL BE SAVED ON UNIT 1079 AT END OF TIME STEP   14, STRESS PERIOD   16


  ENERGY BUDGET FOR ENTIRE MODEL AT END OF TIME STEP   14, STRESS PERIOD  16
  ---------------------------------------------------------------------------------------------------

     CUMULATIVE ENERGY      E       RATES FOR THIS TIME STEP      E/T          PACKAGE NAME    
     ------------------                 ------------------------                     ----------------

           IN:                                      IN:
           ---                                      ---
     STORAGE-CELLBLK =       3.0604E+14       STORAGE-CELLBLK =      597554.7475     EST                              
                 WEL =       6.8638E+14                   WEL =     3511200.0000     SSM_WELL_INJECT                  
                 WEL =           0.0000                   WEL =           0.0000     SSM_WELL_EXTRACT                 
                 RIV =       2.0331E+14                   RIV =      849606.2530     SSM_RIV                          
                RCHA =       6.3325E+13                  RCHA =      264614.0081     SSM_RCH                          
                 CHD =       2.6384E+14                   CHD =     1102510.6221     SSM_CHD                          

            TOTAL IN =       1.5229E+15              TOTAL IN =     6325485.6307

          OUT:                                     OUT:
          ----                                     ----
     STORAGE-CELLBLK =       3.4213E+14       STORAGE-CELLBLK =     1372760.6698     EST                              
                 WEL =           0.0000                   WEL =           0.0000     SSM_WELL_INJECT                  
                 WEL =       6.5016E+14                   WEL =     2735540.0541     SSM_WELL_EXTRACT                 
                 RIV =       2.8490E+14                   RIV =     1190429.4722     SSM_RIV                          
                RCHA =           0.0000                  RCHA =           0.0000     SSM_RCH                          
                 CHD =       2.4572E+14                   CHD =     1026755.4346     SSM_CHD                          

           TOTAL OUT =       1.5229E+15             TOTAL OUT =     6325485.6307

            IN - OUT =           2.7500              IN - OUT =      -1.3225E-07

 PERCENT DISCREPANCY =           0.00     PERCENT DISCREPANCY =          -0.00




         TIME SUMMARY AT END OF TIME STEP   14 IN STRESS PERIOD   16
                    SECONDS     MINUTES      HOURS       DAYS        YEARS
                    -----------------------------------------------------------
   TIME STEP LENGTH 1.31490E+06  21915.      365.25      15.219     4.16667E-02
 STRESS PERIOD TIME 1.84086E+07 3.06810E+05  5113.5      213.06     0.58333    
         TOTAL TIME 2.39312E+08 3.98853E+06  66476.      2769.8      7.5833    


end timestep


start timestep kper="17" kstp="1" mode="normal"


 OUTPUT CONTROL FOR STRESS PERIOD 17 IS REPEATED USING SETTINGS FROM A PREVIOUS STRESS PERIOD.

 OPENED gwe.well_inject.spc_perioddata_17.txt
 FILE TYPE:OPEN/CLOSE   UNIT 1097   STATUS:OLD                 
 FORMAT:FORMATTED              ACCESS:SEQUENTIAL          
 ACTION:READ                


end timestep


start timestep kper="17" kstp="2" mode="normal"


end timestep


start timestep kper="17" kstp="3" mode="normal"


end timestep


start timestep kper="17" kstp="4" mode="normal"


end timestep


start timestep kper="17" kstp="5" mode="normal"


end timestep


start timestep kper="17" kstp="6" mode="normal"


end timestep


start timestep kper="17" kstp="7" mode="normal"


end timestep


start timestep kper="17" kstp="8" mode="normal"


end timestep


start timestep kper="17" kstp="9" mode="normal"


end timestep


start timestep kper="17" kstp="10" mode="normal"


 TEMPERATURE WILL BE SAVED ON UNIT 1079 AT END OF TIME STEP   10, STRESS PERIOD   17


  ENERGY BUDGET FOR ENTIRE MODEL AT END OF TIME STEP   10, STRESS PERIOD  17
  ---------------------------------------------------------------------------------------------------

     CUMULATIVE ENERGY      E       RATES FOR THIS TIME STEP      E/T          PACKAGE NAME    
     ------------------                 ------------------------                     ----------------

           IN:                                      IN:
           ---                                      ---
     STORAGE-CELLBLK =       3.3120E+14       STORAGE-CELLBLK =     1661478.9989     EST                              
                 WEL =       7.1056E+14                   WEL =     1839200.0000     SSM_WELL_INJECT                  
                 WEL =           0.0000                   WEL =           0.0000     SSM_WELL_EXTRACT                 
                 RIV =       2.1448E+14                   RIV =      849610.3460     SSM_RIV                          
                RCHA =       6.6805E+13                  RCHA =      264614.0081     SSM_RCH                          
                 CHD =       2.7834E+14                   CHD =     1102511.7449     SSM_CHD                          

            TOTAL IN =       1.6014E+15              TOTAL IN =     5717415.0978

          OUT:                                     OUT:
          ----                                     ----
     STORAGE-CELLBLK =       3.5544E+14       STORAGE-CELLBLK =      760884.9765     EST                              
                 WEL =           0.0000                   WEL =           0.0000     SSM_WELL_INJECT                  
                 WEL =       6.8618E+14                   WEL =     2739349.9358     SSM_WELL_EXTRACT                 
                 RIV =       3.0055E+14                   RIV =     1190425.3094     SSM_RIV                          
                RCHA =           0.0000                  RCHA =           0.0000     SSM_RCH                          
                 CHD =       2.5922E+14                   CHD =     1026754.8760     SSM_CHD                          

           TOTAL OUT =       1.6014E+15             TOTAL OUT =     5717415.0978

            IN - OUT =           5.5000              IN - OUT =      -2.6077E-07

 PERCENT DISCREPANCY =           0.00     PERCENT DISCREPANCY =          -0.00




         TIME SUMMARY AT END OF TIME STEP   10 IN STRESS PERIOD   17
                    SECONDS     MINUTES      HOURS       DAYS        YEARS
                    -----------------------------------------------------------
   TIME STEP LENGTH 1.31490E+06  21915.      365.25      15.219     4.16667E-02
 STRESS PERIOD TIME 1.31490E+07 2.19150E+05  3652.5      152.19     0.41667    
         TOTAL TIME 2.52461E+08 4.20768E+06  70128.      2922.0      8.0000    


end timestep


start timestep kper="18" kstp="1" mode="normal"


 OUTPUT CONTROL FOR STRESS PERIOD 18 IS REPEATED USING SETTINGS FROM A PREVIOUS STRESS PERIOD.

 OPENED gwe.well_inject.spc_perioddata_18.txt
 FILE TYPE:OPEN/CLOSE   UNIT 1098   STATUS:OLD                 
 FORMAT:FORMATTED              ACCESS:SEQUENTIAL          
 ACTION:READ                


end timestep


start timestep kper="18" kstp="2" mode="normal"


end timestep


start timestep kper="18" kstp="3" mode="normal"


end timestep


start timestep kper="18" kstp="4" mode="normal"


end timestep


start timestep kper="18" kstp="5" mode="normal"


end timestep


start timestep kper="18" kstp="6" mode="normal"


end timestep


start timestep kper="18" kstp="7" mode="normal"


end timestep


start timestep kper="18" kstp="8" mode="normal"


end timestep


start timestep kper="18" kstp="9" mode="normal"


end timestep


start timestep kper="18" kstp="10" mode="normal"


end timestep


start timestep kper="18" kstp="11" mode="normal"


end timestep


start timestep kper="18" kstp="12" mode="normal"


end timestep


start timestep kper="18" kstp="13" mode="normal"


end timestep


start timestep kper="18" kstp="14" mode="normal"


 TEMPERATURE WILL BE SAVED ON UNIT 1079 AT END OF TIME STEP   14, STRESS PERIOD   18


  ENERGY BUDGET FOR ENTIRE MODEL AT END OF TIME STEP   14, STRESS PERIOD  18
  ---------------------------------------------------------------------------------------------------

     CUMULATIVE ENERGY      E       RATES FOR THIS TIME STEP      E/T          PACKAGE NAME    
     ------------------                 ------------------------                     ----------------

           IN:                                      IN:
           ---                                      ---
     STORAGE-CELLBLK =       3.4961E+14       STORAGE-CELLBLK =      595113.4161     EST                              
                 WEL =       7.7520E+14                   WEL =     3511200.0000     SSM_WELL_INJECT                  
                 WEL =           0.0000                   WEL =           0.0000     SSM_WELL_EXTRACT                 
                 RIV =       2.3012E+14                   RIV =      849615.9450     SSM_RIV                          
                RCHA =       7.1676E+13                  RCHA =      264614.0081     SSM_RCH                          
                 CHD =       2.9863E+14                   CHD =     1102513.2820     SSM_CHD                          

            TOTAL IN =       1.7252E+15              TOTAL IN =     6323056.6512

          OUT:                                     OUT:
          ----                                     ----
     STORAGE-CELLBLK =       3.8813E+14       STORAGE-CELLBLK =     1369209.4306     EST                              
                 WEL =           0.0000                   WEL =           0.0000     SSM_WELL_INJECT                  
                 WEL =       7.3652E+14                   WEL =     2736673.4851     SSM_WELL_EXTRACT                 
                 RIV =       3.2246E+14                   RIV =     1190419.6236     SSM_RIV                          
                RCHA =           0.0000                  RCHA =           0.0000     SSM_RCH                          
                 CHD =       2.7812E+14                   CHD =     1026754.1118     SSM_CHD                          

           TOTAL OUT =       1.7252E+15             TOTAL OUT =     6323056.6512

            IN - OUT =           4.2500              IN - OUT =      -1.1083E-07

 PERCENT DISCREPANCY =           0.00     PERCENT DISCREPANCY =          -0.00




         TIME SUMMARY AT END OF TIME STEP   14 IN STRESS PERIOD   18
                    SECONDS     MINUTES      HOURS       DAYS        YEARS
                    -----------------------------------------------------------
   TIME STEP LENGTH 1.31490E+06  21915.      365.25      15.219     4.16667E-02
 STRESS PERIOD TIME 1.84086E+07 3.06810E+05  5113.5      213.06     0.58333    
         TOTAL TIME 2.70869E+08 4.51449E+06  75242.      3135.1      8.5833    


end timestep


start timestep kper="19" kstp="1" mode="normal"


 OUTPUT CONTROL FOR STRESS PERIOD 19 IS REPEATED USING SETTINGS FROM A PREVIOUS STRESS PERIOD.

 OPENED gwe.well_inject.spc_perioddata_19.txt
 FILE TYPE:OPEN/CLOSE   UNIT 1099   STATUS:OLD                 
 FORMAT:FORMATTED              ACCESS:SEQUENTIAL          
 ACTION:READ                


end timestep


start timestep kper="19" kstp="2" mode="normal"


end timestep


start timestep kper="19" kstp="3" mode="normal"


end timestep


start timestep kper="19" kstp="4" mode="normal"


end timestep


start timestep kper="19" kstp="5" mode="normal"


end timestep


start timestep kper="19" kstp="6" mode="normal"


end timestep


start timestep kper="19" kstp="7" mode="normal"


end timestep


start timestep kper="19" kstp="8" mode="normal"


end timestep


start timestep kper="19" kstp="9" mode="normal"


end timestep


[...]
         TOTAL TIME 8.70464E+08 1.45077E+07 2.41796E+05  10075.      27.583    


end timestep


start timestep kper="57" kstp="1" mode="normal"


 OUTPUT CONTROL FOR STRESS PERIOD 57 IS REPEATED USING SETTINGS FROM A PREVIOUS STRESS PERIOD.

 OPENED gwe.well_inject.spc_perioddata_57.txt
 FILE TYPE:OPEN/CLOSE   UNIT 1137   STATUS:OLD                 
 FORMAT:FORMATTED              ACCESS:SEQUENTIAL          
 ACTION:READ                


end timestep


start timestep kper="57" kstp="2" mode="normal"


end timestep


start timestep kper="57" kstp="3" mode="normal"


end timestep


start timestep kper="57" kstp="4" mode="normal"


end timestep


start timestep kper="57" kstp="5" mode="normal"


end timestep


start timestep kper="57" kstp="6" mode="normal"


end timestep


start timestep kper="57" kstp="7" mode="normal"


end timestep


start timestep kper="57" kstp="8" mode="normal"


end timestep


start timestep kper="57" kstp="9" mode="normal"


end timestep


start timestep kper="57" kstp="10" mode="normal"


 TEMPERATURE WILL BE SAVED ON UNIT 1079 AT END OF TIME STEP   10, STRESS PERIOD   57


  ENERGY BUDGET FOR ENTIRE MODEL AT END OF TIME STEP   10, STRESS PERIOD  57
  ---------------------------------------------------------------------------------------------------

     CUMULATIVE ENERGY      E       RATES FOR THIS TIME STEP      E/T          PACKAGE NAME    
     ------------------                 ------------------------                     ----------------

           IN:                                      IN:
           ---                                      ---
     STORAGE-CELLBLK =       1.1990E+15       STORAGE-CELLBLK =     1654771.5717     EST                              
                 WEL =       2.4870E+15                   WEL =     1839200.0000     SSM_WELL_INJECT                  
                 WEL =           0.0000                   WEL =           0.0000     SSM_WELL_EXTRACT                 
                 RIV =       7.5076E+14                   RIV =      849733.9413     SSM_RIV                          
                RCHA =       2.3382E+14                  RCHA =      264614.0081     SSM_RCH                          
                 CHD =       9.7420E+14                   CHD =     1102545.8392     SSM_CHD                          

            TOTAL IN =       5.6447E+15              TOTAL IN =     5710865.3604

          OUT:                                     OUT:
          ----                                     ----
     STORAGE-CELLBLK =       1.2691E+15       STORAGE-CELLBLK =      747304.2260     EST                              
                 WEL =           0.0000                   WEL =           0.0000     SSM_WELL_INJECT                  
                 WEL =       2.4166E+15                   WEL =     2746521.3612     SSM_WELL_EXTRACT                 
                 RIV =       1.0518E+15                   RIV =     1190301.6760     SSM_RIV                          
                RCHA =           0.0000                  RCHA =           0.0000     SSM_RCH                          
                 CHD =       9.0725E+14                   CHD =     1026738.0971     SSM_CHD                          

           TOTAL OUT =       5.6447E+15             TOTAL OUT =     5710865.3604

            IN - OUT =          43.0000              IN - OUT =      -1.3225E-07

 PERCENT DISCREPANCY =           0.00     PERCENT DISCREPANCY =          -0.00




         TIME SUMMARY AT END OF TIME STEP   10 IN STRESS PERIOD   57
                    SECONDS     MINUTES      HOURS       DAYS        YEARS
                    -----------------------------------------------------------
   TIME STEP LENGTH 1.31490E+06  21915.      365.25      15.219     4.16667E-02
 STRESS PERIOD TIME 1.31490E+07 2.19150E+05  3652.5      152.19     0.41667    
         TOTAL TIME 8.83613E+08 1.47269E+07 2.45448E+05  10227.      28.000    


end timestep


start timestep kper="58" kstp="1" mode="normal"


 OUTPUT CONTROL FOR STRESS PERIOD 58 IS REPEATED USING SETTINGS FROM A PREVIOUS STRESS PERIOD.

 OPENED gwe.well_inject.spc_perioddata_58.txt
 FILE TYPE:OPEN/CLOSE   UNIT 1138   STATUS:OLD                 
 FORMAT:FORMATTED              ACCESS:SEQUENTIAL          
 ACTION:READ                


end timestep


start timestep kper="58" kstp="2" mode="normal"


end timestep


start timestep kper="58" kstp="3" mode="normal"


end timestep


start timestep kper="58" kstp="4" mode="normal"


end timestep


start timestep kper="58" kstp="5" mode="normal"


end timestep


start timestep kper="58" kstp="6" mode="normal"


end timestep


start timestep kper="58" kstp="7" mode="normal"


end timestep


start timestep kper="58" kstp="8" mode="normal"


end timestep


start timestep kper="58" kstp="9" mode="normal"


end timestep


start timestep kper="58" kstp="10" mode="normal"


end timestep


start timestep kper="58" kstp="11" mode="normal"


end timestep


start timestep kper="58" kstp="12" mode="normal"


end timestep


start timestep kper="58" kstp="13" mode="normal"


end timestep


start timestep kper="58" kstp="14" mode="normal"


 TEMPERATURE WILL BE SAVED ON UNIT 1079 AT END OF TIME STEP   14, STRESS PERIOD   58


  ENERGY BUDGET FOR ENTIRE MODEL AT END OF TIME STEP   14, STRESS PERIOD  58
  ---------------------------------------------------------------------------------------------------

     CUMULATIVE ENERGY      E       RATES FOR THIS TIME STEP      E/T          PACKAGE NAME    
     ------------------                 ------------------------                     ----------------

           IN:                                      IN:
           ---                                      ---
     STORAGE-CELLBLK =       1.2173E+15       STORAGE-CELLBLK =      589659.3136     EST                              
                 WEL =       2.5516E+15                   WEL =     3511200.0000     SSM_WELL_INJECT                  
                 WEL =           0.0000                   WEL =           0.0000     SSM_WELL_EXTRACT                 
                 RIV =       7.6640E+14                   RIV =      849735.9973     SSM_RIV                          
                RCHA =       2.3869E+14                  RCHA =      264614.0081     SSM_RCH                          
                 CHD =       9.9450E+14                   CHD =     1102546.4087     SSM_CHD                          

            TOTAL IN =       5.7685E+15              TOTAL IN =     6317755.7277

          OUT:                                     OUT:
          ----                                     ----
     STORAGE-CELLBLK =       1.3016E+15       STORAGE-CELLBLK =     1357462.3483     EST                              
                 WEL =           0.0000                   WEL =           0.0000     SSM_WELL_INJECT                  
                 WEL =       2.4670E+15                   WEL =     2743255.9071     SSM_WELL_EXTRACT                 
                 RIV =       1.0738E+15                   RIV =     1190299.6546     SSM_RIV                          
                RCHA =           0.0000                  RCHA =           0.0000     SSM_RCH                          
                 CHD =       9.2615E+14                   CHD =     1026737.8177     SSM_CHD                          

           TOTAL OUT =       5.7685E+15             TOTAL OUT =     6317755.7277

            IN - OUT =          44.0000              IN - OUT =      -6.1467E-08

 PERCENT DISCREPANCY =           0.00     PERCENT DISCREPANCY =          -0.00




         TIME SUMMARY AT END OF TIME STEP   14 IN STRESS PERIOD   58
                    SECONDS     MINUTES      HOURS       DAYS        YEARS
                    -----------------------------------------------------------
   TIME STEP LENGTH 1.31490E+06  21915.      365.25      15.219     4.16667E-02
 STRESS PERIOD TIME 1.84086E+07 3.06810E+05  5113.5      213.06     0.58333    
         TOTAL TIME 9.02021E+08 1.50337E+07 2.50562E+05  10440.      28.583    


end timestep


start timestep kper="59" kstp="1" mode="normal"


 OUTPUT CONTROL FOR STRESS PERIOD 59 IS REPEATED USING SETTINGS FROM A PREVIOUS STRESS PERIOD.

 OPENED gwe.well_inject.spc_perioddata_59.txt
 FILE TYPE:OPEN/CLOSE   UNIT 1139   STATUS:OLD                 
 FORMAT:FORMATTED              ACCESS:SEQUENTIAL          
 ACTION:READ                


end timestep


start timestep kper="59" kstp="2" mode="normal"


end timestep


start timestep kper="59" kstp="3" mode="normal"


end timestep


start timestep kper="59" kstp="4" mode="normal"


end timestep


start timestep kper="59" kstp="5" mode="normal"


end timestep


start timestep kper="59" kstp="6" mode="normal"


end timestep


start timestep kper="59" kstp="7" mode="normal"


end timestep


start timestep kper="59" kstp="8" mode="normal"


end timestep


start timestep kper="59" kstp="9" mode="normal"


end timestep


start timestep kper="59" kstp="10" mode="normal"


 TEMPERATURE WILL BE SAVED ON UNIT 1079 AT END OF TIME STEP   10, STRESS PERIOD   59


  ENERGY BUDGET FOR ENTIRE MODEL AT END OF TIME STEP   10, STRESS PERIOD  59
  ---------------------------------------------------------------------------------------------------

     CUMULATIVE ENERGY      E       RATES FOR THIS TIME STEP      E/T          PACKAGE NAME    
     ------------------                 ------------------------                     ----------------

           IN:                                      IN:
           ---                                      ---
     STORAGE-CELLBLK =       1.2424E+15       STORAGE-CELLBLK =     1654769.5760     EST                              
                 WEL =       2.5758E+15                   WEL =     1839200.0000     SSM_WELL_INJECT                  
                 WEL =           0.0000                   WEL =           0.0000     SSM_WELL_EXTRACT                 
                 RIV =       7.7757E+14                   RIV =      849737.4343     SSM_RIV                          
                RCHA =       2.4217E+14                  RCHA =      264614.0081     SSM_RCH                          
                 CHD =       1.0090E+15                   CHD =     1102546.8053     SSM_CHD                          

            TOTAL IN =       5.8469E+15              TOTAL IN =     5710867.8236

          OUT:                                     OUT:
          ----                                     ----
     STORAGE-CELLBLK =       1.3147E+15       STORAGE-CELLBLK =      747226.6872     EST                              
                 WEL =           0.0000                   WEL =           0.0000     SSM_WELL_INJECT                  
                 WEL =       2.5031E+15                   WEL =     2746605.2612     SSM_WELL_EXTRACT                 
                 RIV =       1.0894E+15                   RIV =     1190298.2521     SSM_RIV                          
                RCHA =           0.0000                  RCHA =           0.0000     SSM_RCH                          
                 CHD =       9.3965E+14                   CHD =     1026737.6231     SSM_CHD                          

           TOTAL OUT =       5.8469E+15             TOTAL OUT =     5710867.8236

            IN - OUT =          45.0000              IN - OUT =      -1.4808E-07

 PERCENT DISCREPANCY =           0.00     PERCENT DISCREPANCY =          -0.00




         TIME SUMMARY AT END OF TIME STEP   10 IN STRESS PERIOD   59
                    SECONDS     MINUTES      HOURS       DAYS        YEARS
                    -----------------------------------------------------------
   TIME STEP LENGTH 1.31490E+06  21915.      365.25      15.219     4.16667E-02
 STRESS PERIOD TIME 1.31490E+07 2.19150E+05  3652.5      152.19     0.41667    
         TOTAL TIME 9.15170E+08 1.52528E+07 2.54214E+05  10592.      29.000    


end timestep


start timestep kper="60" kstp="1" mode="normal"


 OUTPUT CONTROL FOR STRESS PERIOD 60 IS REPEATED USING SETTINGS FROM A PREVIOUS STRESS PERIOD.

 OPENED gwe.well_inject.spc_perioddata_60.txt
 FILE TYPE:OPEN/CLOSE   UNIT 1140   STATUS:OLD                 
 FORMAT:FORMATTED              ACCESS:SEQUENTIAL          
 ACTION:READ                


end timestep


start timestep kper="60" kstp="2" mode="normal"


end timestep


start timestep kper="60" kstp="3" mode="normal"


end timestep


start timestep kper="60" kstp="4" mode="normal"


end timestep


start timestep kper="60" kstp="5" mode="normal"


end timestep


start timestep kper="60" kstp="6" mode="normal"


end timestep


start timestep kper="60" kstp="7" mode="normal"


end timestep


start timestep kper="60" kstp="8" mode="normal"


end timestep


start timestep kper="60" kstp="9" mode="normal"


end timestep


start timestep kper="60" kstp="10" mode="normal"


end timestep


start timestep kper="60" kstp="11" mode="normal"


end timestep


start timestep kper="60" kstp="12" mode="normal"


end timestep


start timestep kper="60" kstp="13" mode="normal"


end timestep


start timestep kper="60" kstp="14" mode="normal"


 TEMPERATURE WILL BE SAVED ON UNIT 1079 AT END OF TIME STEP   14, STRESS PERIOD   60


  ENERGY BUDGET FOR ENTIRE MODEL AT END OF TIME STEP   14, STRESS PERIOD  60
  ---------------------------------------------------------------------------------------------------

     CUMULATIVE ENERGY      E       RATES FOR THIS TIME STEP      E/T          PACKAGE NAME    
     ------------------                 ------------------------                     ----------------

           IN:                                      IN:
           ---                                      ---
     STORAGE-CELLBLK =       1.2607E+15       STORAGE-CELLBLK =      589657.9783     EST                              
                 WEL =       2.6404E+15                   WEL =     3511200.0000     SSM_WELL_INJECT                  
                 WEL =           0.0000                   WEL =           0.0000     SSM_WELL_EXTRACT                 
                 RIV =       7.9322E+14                   RIV =      849739.3888     SSM_RIV                          
                RCHA =       2.4704E+14                  RCHA =      264614.0081     SSM_RCH                          
                 CHD =       1.0293E+15                   CHD =     1102547.3466     SSM_CHD                          

            TOTAL IN =       5.9706E+15              TOTAL IN =     6317758.7218

          OUT:                                     OUT:
          ----                                     ----
     STORAGE-CELLBLK =       1.3471E+15       STORAGE-CELLBLK =     1357389.6151     EST                              
                 WEL =           0.0000                   WEL =           0.0000     SSM_WELL_INJECT                  
                 WEL =       2.5536E+15                   WEL =     2743335.4058     SSM_WELL_EXTRACT                 
                 RIV =       1.1113E+15                   RIV =     1190296.3434     SSM_RIV                          
                RCHA =           0.0000                  RCHA =           0.0000     SSM_RCH                          
                 CHD =       9.5855E+14                   CHD =     1026737.3574     SSM_CHD                          

           TOTAL OUT =       5.9706E+15             TOTAL OUT =     6317758.7218

            IN - OUT =          44.0000              IN - OUT =      -4.3772E-08

 PERCENT DISCREPANCY =           0.00     PERCENT DISCREPANCY =          -0.00




         TIME SUMMARY AT END OF TIME STEP   14 IN STRESS PERIOD   60
                    SECONDS     MINUTES      HOURS       DAYS        YEARS
                    -----------------------------------------------------------
   TIME STEP LENGTH 1.31490E+06  21915.      365.25      15.219     4.16667E-02
 STRESS PERIOD TIME 1.84086E+07 3.06810E+05  5113.5      213.06     0.58333    
         TOTAL TIME 9.33579E+08 1.55597E+07 2.59328E+05  10805.      29.583    


end timestep


start timestep kper="61" kstp="1" mode="normal"


 OUTPUT CONTROL FOR STRESS PERIOD 61 IS REPEATED USING SETTINGS FROM A PREVIOUS STRESS PERIOD.

 OPENED gwe.well_inject.spc_perioddata_61.txt
 FILE TYPE:OPEN/CLOSE   UNIT 1141   STATUS:OLD                 
 FORMAT:FORMATTED              ACCESS:SEQUENTIAL          
 ACTION:READ                


end timestep


start timestep kper="61" kstp="2" mode="normal"


end timestep


start timestep kper="61" kstp="3" mode="normal"


end timestep


start timestep kper="61" kstp="4" mode="normal"


end timestep


start timestep kper="61" kstp="5" mode="normal"


end timestep


start timestep kper="61" kstp="6" mode="normal"


end timestep


start timestep kper="61" kstp="7" mode="normal"


end timestep


start timestep kper="61" kstp="8" mode="normal"


end timestep


start timestep kper="61" kstp="9" mode="normal"


end timestep


start timestep kper="61" kstp="10" mode="normal"


 TEMPERATURE WILL BE SAVED ON UNIT 1079 AT END OF TIME STEP   10, STRESS PERIOD   61


  ENERGY BUDGET FOR ENTIRE MODEL AT END OF TIME STEP   10, STRESS PERIOD  61
  ---------------------------------------------------------------------------------------------------

     CUMULATIVE ENERGY      E       RATES FOR THIS TIME STEP      E/T          PACKAGE NAME    
     ------------------                 ------------------------                     ----------------

           IN:                                      IN:
           ---                                      ---
     STORAGE-CELLBLK =       1.2857E+15       STORAGE-CELLBLK =     1654768.6353     EST                              
                 WEL =       2.6646E+15                   WEL =     1839200.0000     SSM_WELL_INJECT                  
                 WEL =           0.0000                   WEL =           0.0000     SSM_WELL_EXTRACT                 
                 RIV =       8.0439E+14                   RIV =      849740.7520     SSM_RIV                          
                RCHA =       2.5052E+14                  RCHA =      264614.0081     SSM_RCH                          
                 CHD =       1.0438E+15                   CHD =     1102547.7235     SSM_CHD                          

            TOTAL IN =       6.0490E+15              TOTAL IN =     5710871.1189

          OUT:                                     OUT:
          ----                                     ----
     STORAGE-CELLBLK =       1.3603E+15       STORAGE-CELLBLK =      747157.1144     EST                              
                 WEL =           0.0000                   WEL =           0.0000     SSM_WELL_INJECT                  
                 WEL =       2.5897E+15                   WEL =     2746681.8083     SSM_WELL_EXTRACT                 
                 RIV =       1.1270E+15                   RIV =     1190295.0239     SSM_RIV                          
                RCHA =           0.0000                  RCHA =           0.0000     SSM_RCH                          
                 CHD =       9.7205E+14                   CHD =     1026737.1724     SSM_CHD                          

           TOTAL OUT =       6.0490E+15             TOTAL OUT =     5710871.1189

            IN - OUT =          49.0000              IN - OUT =      -9.1270E-08

 PERCENT DISCREPANCY =           0.00     PERCENT DISCREPANCY =          -0.00




         TIME SUMMARY AT END OF TIME STEP   10 IN STRESS PERIOD   61
                    SECONDS     MINUTES      HOURS       DAYS        YEARS
                    -----------------------------------------------------------
   TIME STEP LENGTH 1.31490E+06  21915.      365.25      15.219     4.16667E-02
 STRESS PERIOD TIME 1.31490E+07 2.19150E+05  3652.5      152.19     0.41667    
         TOTAL TIME 9.46728E+08 1.57788E+07 2.62980E+05  10958.      30.000    


end timestep

