                                   MODFLOW 6
                U.S. GEOLOGICAL SURVEY MODULAR HYDROLOGIC MODEL
                             TRANSPORT MODEL (GWE)
                  VERSION 6.7.0.dev3 (preliminary) 10/16/2025
                               ***DEVELOP MODE***

   MODFLOW 6 compiled Oct 16 2025 14:05:53 with Intel(R) Fortran Intel(R) 64
   Compiler Classic for applications running on Intel(R) 64, Version 2021.7.0
                             Build 20220726_000000

This software is preliminary or provisional and is subject to 
revision. It is being provided to meet the need for timely best 
science. The software has not received final approval by the U.S. 
Geological Survey (USGS). No warranty, expressed or implied, is made 
by the USGS or the U.S. Government as to the functionality of the 
software and related material nor shall the fact of release 
constitute any such warranty. The software is provided on the 
condition that neither the USGS nor the U.S. Government shall be held 
liable for any damages resulting from the authorized or unauthorized 
use of the software.


As a work of the United States Government, this USGS product is 
in the public domain within the United States. You can copy, 
modify, distribute, and perform the work, even for commercial 
purposes, all without asking permission. Additionally, USGS 
waives copyright and related rights in the work worldwide 
through CC0 1.0 Universal Public Domain Dedication 
(https://creativecommons.org/publicdomain/zero/1.0/).

The following GNU Lesser General Public License (LGPL) libraries
are used in this USGS product:

    SPARSKIT version 2.0
      ilut, luson, and qsplit 
      (https://www-users.cse.umn.edu/~saad/software/SPARSKIT/)

    RCM - Reverse Cuthill McKee Ordering
      (https://people.math.sc.edu/Burkardt/f_src/rcm/rcm.html)

    BLAS - Basic Linear Algebra Subprograms Level 1
      (https://people.math.sc.edu/Burkardt/f_src/blas1_d/blas1_d.html)

    SPARSEKIT - Sparse Matrix Utility Package
      amux, dperm, dvperm, rperm, and cperm
      (https://people.sc.fsu.edu/~jburkardt/f77_src/sparsekit/sparsekit.html)

The following BSD-3 License libraries are used in this USGS product:

    Modern Fortran DAG Library
      Copyright (c) 2018, Jacob Williams
      All rights reserved.
      (https://github.com/jacobwilliams/daglib)

MODFLOW 6 compiler options: -Isrc/libmf6_external.a.p -Isrc/libmf6core.a.p
-Isrc -I../src -warn general -warn truncated_source -stand=f18 -O2 -fpe0
-no-heap-arrays -traceback -diag-disable:7416 -diag-disable:7025
-diag-disable:5268 -module src/libmf6core.a.p
-gen-dep=src/libmf6core.a.p/Utilities_compilerversion.F90.o
-gen-depformat=make -o src/libmf6core.a.p/Utilities_compilerversion.F90.o -c

System command used to initiate simulation:
./mf6

MODFLOW was compiled using uniform precision.

Real Variables
  KIND: 8
  TINY (smallest non-zero value):    2.225074-308
  HUGE (largest value):    1.797693+308
  PRECISION: 15
  SIZE IN BITS: 64

Integer Variables
  KIND: 4
  HUGE (largest value): 2147483647
  SIZE IN BITS: 32

Long Integer Variables
  KIND: 8
  HUGE (largest value): 9223372036854775807
  SIZE IN BITS: 64

Logical Variables
  KIND: 4
  SIZE IN BITS: 32
 
 NAMEFILE OPTIONS:
 END NAMEFILE OPTIONS:

 DISV -- VERTEX GRID DISCRETIZATION PACKAGE, VERSION 1 : 12/23/2015 - INPUT READ FROM MEMPATH: __INPUT__/GWE/DISV                                


 Setting Discretization Options
    Binary grid file [0=GRB, 1=NOGRB] set as 1
 End Setting Discretization Options

 Setting Discretization Dimensions
    NLAY = 1
    NCPL = 13417
    NVERT = 26966
 End Setting Discretization Dimensions

 Setting Discretization Griddata
    TOP set from input file
    BOTM set from input file
 End Setting Discretization Griddata

 Discretization Vertex data loaded
 Discretization Cell2d data loaded

 CND-- THERMAL CONDUCTION AND DISPERSION PACKAGE, VERSION 1, 01/01/2024, INPUT READ FROM MEMPATH __INPUT__/GWE/CND                                 



 FMI -- FLOW MODEL INTERFACE,' VERSION 2, 8/17/2023
  FLOWS PROVIDED BY A GWF MODEL IN THIS SIMULATION

 ADV -- ADVECTION PACKAGE, VERSION 1, 8/25/2017 INPUT READ FROM MEMPATH: __INPUT__/GWE/ADV                                 


 PROCESSING ADVECTION OPTIONS
    ADVECTION WEIGHTING SCHEME HAS BEEN SET TO: TVD
 END OF ADVECTION OPTIONS
 Setting CND Options
    XT3D formulation [0=INACTIVE, 1=ACTIVE, 3=ACTIVE RHS] set to: 1
 End Setting CND Options

 Setting CND Griddata
    ALH set from input file
    ATH1 set from input file
    KTW set from input file
    KTS set from input file
 End Setting CND Griddata

    STRT set from input file

 EST -- ENERGY STORAGE AND TRANSFER PACKAGE, VERSION 1, 7/29/2020 INPUT READ FROM MEMPATH: __INPUT__/GWE/EST                                 

 PROCESSING ENERGY STORAGE AND TRANSFER OPTIONS
    Heat capacity of the water has been set to:     4180.00    
    Density of the water has been set to:     1000.00    
    Latent heat of vaporization of the water has been set to:    2.454000E+06
 END PROCESSING ENERGY STORAGE AND TRANSFER OPTIONS

 PROCESSING ENERGY STORAGE AND TRANSFER GRIDDATA
    POROSITY set from input file
    HEAT_CAPACITY_SOLID set from input file
    DENSITY_SOLID set from input file
 END PROCESSING ENERGY STORAGE AND TRANSFER GRIDDATA

 SSM -- SOURCE-SINK MIXING PACKAGE, VERSION 1, 8/25/2017 INPUT READ FROM MEMPATH: __INPUT__/GWE/SSM                                 


 PROCESSING SSM OPTIONS
 END OF SSM OPTIONS

 PROCESSING SSM SOURCES
    AUX SOURCE DETECTED.
    USING AUX COLUMN 1 IN PACKAGE AUX
    AUX SOURCE DETECTED.
    USING AUX COLUMN 1 IN PACKAGE AUX
    AUX SOURCE DETECTED.
    USING AUX COLUMN 1 IN PACKAGE AUX
    AUX SOURCE DETECTED.
    USING AUX COLUMN 1 IN PACKAGE AUX
 END PROCESSING SSM SOURCES

 PROCESSING SSM FILEINPUT
    SPC6 SOURCE DETECTED:

 OPENED gwe.well_inject.spc
 FILE TYPE:SPC   UNIT 1071   STATUS:OLD                 
 FORMAT:FORMATTED              ACCESS:SEQUENTIAL          
 ACTION:READ                

 # File generated by Flopy version 3.10.0.dev5 on 10/29/2025 at 13:54:48.
 PROCESSING SPC OPTIONS
 END OF SPC OPTIONS

 PROCESSING STRESS PACK COMP DIMENSIONS
    MAXBOUND =       4
 END OF STRESS PACK COMP DIMENSIONS
    USING SPC INPUT FILE gwe.well_inject.spc TO SET TEMPERATURES FOR PACKAGE 
    WELL_INJECT
 END PROCESSING SSM FILEINPUT

The observation utility is active for "GWE"
 # File generated by Flopy version 3.10.0.dev5 on 10/29/2025 at 13:54:48.

Processing observation options:

Text output number of digits of precision set to: 10


 OPENED gwe.obs_continuous_gwe_temps1.csv.txt
 FILE TYPE:OPEN/CLOSE   UNIT 1072   STATUS:OLD                 
 FORMAT:FORMATTED              ACCESS:SEQUENTIAL          
 ACTION:READ                


 OPENED gwe.obs_continuous_gwe_temps2.csv.txt
 FILE TYPE:OPEN/CLOSE   UNIT 1074   STATUS:OLD                 
 FORMAT:FORMATTED              ACCESS:SEQUENTIAL          
 ACTION:READ                


 OPENED gwe.obs_continuous_gwe_temps_ext.csv.txt
 FILE TYPE:OPEN/CLOSE   UNIT 1076   STATUS:OLD                 
 FORMAT:FORMATTED              ACCESS:SEQUENTIAL          
 ACTION:READ                

      THE LAST TIME STEP WILL BE PRINTED
      THE LAST TIME STEP WILL BE PRINTED
 # File generated by Flopy version 3.10.0.dev5 on 10/29/2025 at 13:54:48.

 PROCESSING OC OPTIONS

    BUDGET INFORMATION WILL BE WRITTEN TO:
      UNIT NUMBER: 1078
      FILE NAME: gwe.cbc

 OPENED gwe.cbc
 FILE TYPE:DATA(BINARY)   UNIT 1078   STATUS:REPLACE             
 FORMAT:UNFORMATTED            ACCESS:STREAM              
 ACTION:READWRITE           

    TEMPERATURE INFORMATION WILL BE WRITTEN TO:
      UNIT NUMBER: 1079
      FILE NAME: gwe.ucn

 OPENED gwe.ucn
 FILE TYPE:DATA(BINARY)   UNIT 1079   STATUS:REPLACE             
 FORMAT:UNFORMATTED            ACCESS:STREAM              
 ACTION:READWRITE           

 END OF OC OPTIONS

start timestep kper="1" kstp="1" mode="normal"


 BEGIN READING OUTPUT CONTROL FOR STRESS PERIOD 1
      THE LAST TIME STEP WILL BE SAVED

 END READING OUTPUT CONTROL FOR STRESS PERIOD 1

 XT3D is active.



 TEMPERATURE WILL BE SAVED ON UNIT 1079 AT END OF TIME STEP    1, STRESS PERIOD    1


  ENERGY BUDGET FOR ENTIRE MODEL AT END OF TIME STEP    1, STRESS PERIOD   1
  ---------------------------------------------------------------------------------------------------

     CUMULATIVE ENERGY      E       RATES FOR THIS TIME STEP      E/T          PACKAGE NAME    
     ------------------                 ------------------------                     ----------------

           IN:                                      IN:
           ---                                      ---
     STORAGE-CELLBLK =         758.8228       STORAGE-CELLBLK =         758.8228     EST                              
                 WEL =           0.0000                   WEL =           0.0000     SSM_WELL_INJECT                  
                 WEL =           0.0000                   WEL =           0.0000     SSM_WELL_EXTRACT                 
                 RIV =      539526.9818                   RIV =      539526.9818     SSM_RIV                          
                RCHA =      264614.0081                  RCHA =      264614.0081     SSM_RCH                          
                 CHD =     1390263.9695                   CHD =     1390263.9695     SSM_CHD                          

            TOTAL IN =     2195163.7822              TOTAL IN =     2195163.7822

          OUT:                                     OUT:
          ----                                     ----
     STORAGE-CELLBLK =         849.8891       STORAGE-CELLBLK =         849.8891     EST                              
                 WEL =           0.0000                   WEL =           0.0000     SSM_WELL_INJECT                  
                 WEL =           0.0000                   WEL =           0.0000     SSM_WELL_EXTRACT                 
                 RIV =     1405939.8450                   RIV =     1405939.8450     SSM_RIV                          
                RCHA =           0.0000                  RCHA =           0.0000     SSM_RCH                          
                 CHD =      788374.1664                   CHD =      788374.1664     SSM_CHD                          

           TOTAL OUT =     2195163.9005             TOTAL OUT =     2195163.9005

            IN - OUT =          -0.1182              IN - OUT =          -0.1182

 PERCENT DISCREPANCY =          -0.00     PERCENT DISCREPANCY =          -0.00




         TIME SUMMARY AT END OF TIME STEP    1 IN STRESS PERIOD    1
                    SECONDS     MINUTES      HOURS       DAYS        YEARS
                    -----------------------------------------------------------
   TIME STEP LENGTH  1.0000     1.66667E-02 2.77778E-04 1.15741E-05 3.16881E-08
 STRESS PERIOD TIME  1.0000     1.66667E-02 2.77778E-04 1.15741E-05 3.16881E-08
         TOTAL TIME  1.0000     1.66667E-02 2.77778E-04 1.15741E-05 3.16881E-08


end timestep


start timestep kper="2" kstp="1" mode="normal"


 END OF FILE DETECTED IN OUTPUT CONTROL.
 CURRENT OUTPUT CONTROL SETTINGS WILL BE 
 REPEATED UNTIL THE END OF THE SIMULATION.

 OUTPUT CONTROL FOR STRESS PERIOD 2 IS REPEATED USING SETTINGS FROM A PREVIOUS STRESS PERIOD.

 OPENED gwe.well_inject.spc_perioddata_2.txt
 FILE TYPE:OPEN/CLOSE   UNIT 1082   STATUS:OLD                 
 FORMAT:FORMATTED              ACCESS:SEQUENTIAL          
 ACTION:READ                


end timestep


start timestep kper="2" kstp="2" mode="normal"


end timestep


start timestep kper="2" kstp="3" mode="normal"


end timestep


start timestep kper="2" kstp="4" mode="normal"


end timestep


start timestep kper="2" kstp="5" mode="normal"


end timestep


start timestep kper="2" kstp="6" mode="normal"


end timestep


start timestep kper="2" kstp="7" mode="normal"


end timestep


start timestep kper="2" kstp="8" mode="normal"


end timestep


start timestep kper="2" kstp="9" mode="normal"


end timestep


start timestep kper="2" kstp="10" mode="normal"


end timestep


start timestep kper="2" kstp="11" mode="normal"


end timestep


start timestep kper="2" kstp="12" mode="normal"


end timestep


start timestep kper="2" kstp="13" mode="normal"


end timestep


start timestep kper="2" kstp="14" mode="normal"


 TEMPERATURE WILL BE SAVED ON UNIT 1079 AT END OF TIME STEP   14, STRESS PERIOD    2


  ENERGY BUDGET FOR ENTIRE MODEL AT END OF TIME STEP   14, STRESS PERIOD   2
  ---------------------------------------------------------------------------------------------------

     CUMULATIVE ENERGY      E       RATES FOR THIS TIME STEP      E/T          PACKAGE NAME    
     ------------------                 ------------------------                     ----------------

           IN:                                      IN:
           ---                                      ---
     STORAGE-CELLBLK =  1848187842.8885       STORAGE-CELLBLK =          43.1204     EST                              
                 WEL =       6.4636E+13                   WEL =     3511200.0000     SSM_WELL_INJECT                  
                 WEL =           0.0000                   WEL =           0.0000     SSM_WELL_EXTRACT                 
                 RIV =       1.0595E+13                   RIV =      575551.9968     SSM_RIV                          
                RCHA =       4.8712E+12                  RCHA =      264614.0081     SSM_RCH                          
                 CHD =       2.7024E+13                   CHD =     1467988.8123     SSM_CHD                          

            TOTAL IN =       1.0713E+14              TOTAL IN =     5819397.9375

          OUT:                                     OUT:
          ----                                     ----
     STORAGE-CELLBLK =       1.5390E+13       STORAGE-CELLBLK =      835925.8950     EST                              
                 WEL =           0.0000                   WEL =           0.0000     SSM_WELL_INJECT                  
                 WEL =       4.9246E+13                   WEL =     2675185.5427     SSM_WELL_EXTRACT                 
                 RIV =       2.7650E+13                   RIV =     1502024.4317     SSM_RIV                          
                RCHA =           0.0000                  RCHA =           0.0000     SSM_RCH                          
                 CHD =       1.4842E+13                   CHD =      806262.0681     SSM_CHD                          

           TOTAL OUT =       1.0713E+14             TOTAL OUT =     5819397.9375

            IN - OUT =           2.2031              IN - OUT =      -1.5460E-07

 PERCENT DISCREPANCY =           0.00     PERCENT DISCREPANCY =          -0.00




         TIME SUMMARY AT END OF TIME STEP   14 IN STRESS PERIOD    2
                    SECONDS     MINUTES      HOURS       DAYS        YEARS
                    -----------------------------------------------------------
   TIME STEP LENGTH 1.31490E+06  21915.      365.25      15.219     4.16667E-02
 STRESS PERIOD TIME 1.84086E+07 3.06810E+05  5113.5      213.06     0.58333    
         TOTAL TIME 1.84086E+07 3.06810E+05  5113.5      213.06     0.58333    


end timestep


start timestep kper="3" kstp="1" mode="normal"


 OUTPUT CONTROL FOR STRESS PERIOD 3 IS REPEATED USING SETTINGS FROM A PREVIOUS STRESS PERIOD.

 OPENED gwe.well_inject.spc_perioddata_3.txt
 FILE TYPE:OPEN/CLOSE   UNIT 1083   STATUS:OLD                 
 FORMAT:FORMATTED              ACCESS:SEQUENTIAL          
 ACTION:READ                


end timestep


start timestep kper="3" kstp="2" mode="normal"


end timestep


start timestep kper="3" kstp="3" mode="normal"


end timestep


start timestep kper="3" kstp="4" mode="normal"


end timestep


start timestep kper="3" kstp="5" mode="normal"


end timestep


start timestep kper="3" kstp="6" mode="normal"


end timestep


start timestep kper="3" kstp="7" mode="normal"


end timestep


start timestep kper="3" kstp="8" mode="normal"


end timestep


start timestep kper="3" kstp="9" mode="normal"


end timestep


start timestep kper="3" kstp="10" mode="normal"


 TEMPERATURE WILL BE SAVED ON UNIT 1079 AT END OF TIME STEP   10, STRESS PERIOD    3


  ENERGY BUDGET FOR ENTIRE MODEL AT END OF TIME STEP   10, STRESS PERIOD   3
  ---------------------------------------------------------------------------------------------------

     CUMULATIVE ENERGY      E       RATES FOR THIS TIME STEP      E/T          PACKAGE NAME    
     ------------------                 ------------------------                     ----------------

           IN:                                      IN:
           ---                                      ---
     STORAGE-CELLBLK =       2.0516E+13       STORAGE-CELLBLK =     1474610.1477     EST                              
                 WEL =       8.8820E+13                   WEL =     1839200.0000     SSM_WELL_INJECT                  
                 WEL =           0.0000                   WEL =           0.0000     SSM_WELL_EXTRACT                 
                 RIV =       1.8163E+13                   RIV =      575549.2073     SSM_RIV                          
                RCHA =       8.3506E+12                  RCHA =      264614.0081     SSM_RCH                          
                 CHD =       4.6326E+13                   CHD =     1467987.4062     SSM_CHD                          

            TOTAL IN =       1.8218E+14              TOTAL IN =     5621960.7692

          OUT:                                     OUT:
          ----                                     ----
     STORAGE-CELLBLK =       2.4910E+13       STORAGE-CELLBLK =      638464.9322     EST                              
                 WEL =           0.0000                   WEL =           0.0000     SSM_WELL_INJECT                  
                 WEL =       8.4422E+13                   WEL =     2675201.8533     SSM_WELL_EXTRACT                 
                 RIV =       4.7400E+13                   RIV =     1502031.7564     SSM_RIV                          
                RCHA =           0.0000                  RCHA =           0.0000     SSM_RCH                          
                 CHD =       2.5444E+13                   CHD =      806262.2274     SSM_CHD                          

           TOTAL OUT =       1.8218E+14             TOTAL OUT =     5621960.7692

            IN - OUT =           2.9375              IN - OUT =       1.0431E-07

 PERCENT DISCREPANCY =           0.00     PERCENT DISCREPANCY =           0.00




         TIME SUMMARY AT END OF TIME STEP   10 IN STRESS PERIOD    3
                    SECONDS     MINUTES      HOURS       DAYS        YEARS
                    -----------------------------------------------------------
   TIME STEP LENGTH 1.31490E+06  21915.      365.25      15.219     4.16667E-02
 STRESS PERIOD TIME 1.31490E+07 2.19150E+05  3652.5      152.19     0.41667    
         TOTAL TIME 3.15576E+07 5.25960E+05  8766.0      365.25      1.0000    


end timestep


start timestep kper="4" kstp="1" mode="normal"


 OUTPUT CONTROL FOR STRESS PERIOD 4 IS REPEATED USING SETTINGS FROM A PREVIOUS STRESS PERIOD.

 OPENED gwe.well_inject.spc_perioddata_4.txt
 FILE TYPE:OPEN/CLOSE   UNIT 1084   STATUS:OLD                 
 FORMAT:FORMATTED              ACCESS:SEQUENTIAL          
 ACTION:READ                


end timestep


start timestep kper="4" kstp="2" mode="normal"


end timestep


start timestep kper="4" kstp="3" mode="normal"


end timestep


start timestep kper="4" kstp="4" mode="normal"


end timestep


start timestep kper="4" kstp="5" mode="normal"


end timestep


start timestep kper="4" kstp="6" mode="normal"


end timestep


start timestep kper="4" kstp="7" mode="normal"


end timestep


start timestep kper="4" kstp="8" mode="normal"


end timestep


start timestep kper="4" kstp="9" mode="normal"


end timestep


start timestep kper="4" kstp="10" mode="normal"


end timestep


start timestep kper="4" kstp="11" mode="normal"


end timestep


start timestep kper="4" kstp="12" mode="normal"


end timestep


start timestep kper="4" kstp="13" mode="normal"


end timestep


start timestep kper="4" kstp="14" mode="normal"


 TEMPERATURE WILL BE SAVED ON UNIT 1079 AT END OF TIME STEP   14, STRESS PERIOD    4


  ENERGY BUDGET FOR ENTIRE MODEL AT END OF TIME STEP   14, STRESS PERIOD   4
  ---------------------------------------------------------------------------------------------------

     CUMULATIVE ENERGY      E       RATES FOR THIS TIME STEP      E/T          PACKAGE NAME    
     ------------------                 ------------------------                     ----------------

           IN:                                      IN:
           ---                                      ---
     STORAGE-CELLBLK =       3.8476E+13       STORAGE-CELLBLK =      664582.9110     EST                              
                 WEL =       1.5346E+14                   WEL =     3511200.0000     SSM_WELL_INJECT                  
                 WEL =           0.0000                   WEL =           0.0000     SSM_WELL_EXTRACT                 
                 RIV =       2.8758E+13                   RIV =      575547.0217     SSM_RIV                          
                RCHA =       1.3222E+13                  RCHA =      264614.0081     SSM_RCH                          
                 CHD =       7.3350E+13                   CHD =     1467986.3783     SSM_CHD                          

            TOTAL IN =       3.0726E+14              TOTAL IN =     6483930.3191

          OUT:                                     OUT:
          ----                                     ----
     STORAGE-CELLBLK =       5.8257E+13       STORAGE-CELLBLK =     1500402.5765     EST                              
                 WEL =           0.0000                   WEL =           0.0000     SSM_WELL_INJECT                  
                 WEL =       1.3367E+14                   WEL =     2675228.6298     SSM_WELL_EXTRACT                 
                 RIV =       7.5051E+13                   RIV =     1502036.8217     SSM_RIV                          
                RCHA =           0.0000                  RCHA =           0.0000     SSM_RCH                          
                 CHD =       4.0286E+13                   CHD =      806262.2911     SSM_CHD                          

           TOTAL OUT =       3.0726E+14             TOTAL OUT =     6483930.3191

            IN - OUT =           3.0625              IN - OUT =       2.8871E-08

 PERCENT DISCREPANCY =           0.00     PERCENT DISCREPANCY =           0.00




         TIME SUMMARY AT END OF TIME STEP   14 IN STRESS PERIOD    4
                    SECONDS     MINUTES      HOURS       DAYS        YEARS
                    -----------------------------------------------------------
   TIME STEP LENGTH 1.31490E+06  21915.      365.25      15.219     4.16667E-02
 STRESS PERIOD TIME 1.84086E+07 3.06810E+05  5113.5      213.06     0.58333    
         TOTAL TIME 4.99662E+07 8.32770E+05  13880.      578.31      1.5833    


end timestep


start timestep kper="5" kstp="1" mode="normal"


 OUTPUT CONTROL FOR STRESS PERIOD 5 IS REPEATED USING SETTINGS FROM A PREVIOUS STRESS PERIOD.

 OPENED gwe.well_inject.spc_perioddata_5.txt
 FILE TYPE:OPEN/CLOSE   UNIT 1085   STATUS:OLD                 
 FORMAT:FORMATTED              ACCESS:SEQUENTIAL          
 ACTION:READ                


end timestep


start timestep kper="5" kstp="2" mode="normal"


end timestep


start timestep kper="5" kstp="3" mode="normal"


end timestep


start timestep kper="5" kstp="4" mode="normal"


end timestep


start timestep kper="5" kstp="5" mode="normal"


end timestep


start timestep kper="5" kstp="6" mode="normal"


end timestep


start timestep kper="5" kstp="7" mode="normal"


end timestep


start timestep kper="5" kstp="8" mode="normal"


end timestep


start timestep kper="5" kstp="9" mode="normal"


end timestep


start timestep kper="5" kstp="10" mode="normal"


 TEMPERATURE WILL BE SAVED ON UNIT 1079 AT END OF TIME STEP   10, STRESS PERIOD    5


  ENERGY BUDGET FOR ENTIRE MODEL AT END OF TIME STEP   10, STRESS PERIOD   5
  ---------------------------------------------------------------------------------------------------

     CUMULATIVE ENERGY      E       RATES FOR THIS TIME STEP      E/T          PACKAGE NAME    
     ------------------                 ------------------------                     ----------------

           IN:                                      IN:
           ---                                      ---
     STORAGE-CELLBLK =       6.4841E+13       STORAGE-CELLBLK =     1762380.1483     EST                              
                 WEL =       1.7764E+14                   WEL =     1839200.0000     SSM_WELL_INJECT                  
                 WEL =           0.0000                   WEL =           0.0000     SSM_WELL_EXTRACT                 
                 RIV =       3.6326E+13                   RIV =      575546.2526     SSM_RIV                          
                RCHA =       1.6701E+13                  RCHA =      264614.0081     SSM_RCH                          
                 CHD =       9.2652E+13                   CHD =     1467986.0230     SSM_CHD                          

            TOTAL IN =       3.8816E+14              TOTAL IN =     5909726.4319

          OUT:                                     OUT:
          ----                                     ----
     STORAGE-CELLBLK =       7.3622E+13       STORAGE-CELLBLK =      924933.5963     EST                              
                 WEL =           0.0000                   WEL =           0.0000     SSM_WELL_INJECT                  
                 WEL =       1.6885E+14                   WEL =     2676492.4210     SSM_WELL_EXTRACT                 
                 RIV =       9.4801E+13                   RIV =     1502038.1402     SSM_RIV                          
                RCHA =           0.0000                  RCHA =           0.0000     SSM_RCH                          
                 CHD =       5.0887E+13                   CHD =      806262.2743     SSM_CHD                          

           TOTAL OUT =       3.8816E+14             TOTAL OUT =     5909726.4319

            IN - OUT =           3.3125              IN - OUT =       3.9116E-08

 PERCENT DISCREPANCY =           0.00     PERCENT DISCREPANCY =           0.00




         TIME SUMMARY AT END OF TIME STEP   10 IN STRESS PERIOD    5
                    SECONDS     MINUTES      HOURS       DAYS        YEARS
                    -----------------------------------------------------------
   TIME STEP LENGTH 1.31490E+06  21915.      365.25      15.219     4.16667E-02
 STRESS PERIOD TIME 1.31490E+07 2.19150E+05  3652.5      152.19     0.41667    
         TOTAL TIME 6.31152E+07 1.05192E+06  17532.      730.50      2.0000    


end timestep


start timestep kper="6" kstp="1" mode="normal"


 OUTPUT CONTROL FOR STRESS PERIOD 6 IS REPEATED USING SETTINGS FROM A PREVIOUS STRESS PERIOD.

 OPENED gwe.well_inject.spc_perioddata_6.txt
 FILE TYPE:OPEN/CLOSE   UNIT 1086   STATUS:OLD                 
 FORMAT:FORMATTED              ACCESS:SEQUENTIAL          
 ACTION:READ                


end timestep


start timestep kper="6" kstp="2" mode="normal"


end timestep


start timestep kper="6" kstp="3" mode="normal"


end timestep


start timestep kper="6" kstp="4" mode="normal"


end timestep


start timestep kper="6" kstp="5" mode="normal"


end timestep


start timestep kper="6" kstp="6" mode="normal"


end timestep


start timestep kper="6" kstp="7" mode="normal"


end timestep


start timestep kper="6" kstp="8" mode="normal"


end timestep


start timestep kper="6" kstp="9" mode="normal"


end timestep


start timestep kper="6" kstp="10" mode="normal"


end timestep


start timestep kper="6" kstp="11" mode="normal"


end timestep


start timestep kper="6" kstp="12" mode="normal"


end timestep


start timestep kper="6" kstp="13" mode="normal"


end timestep


start timestep kper="6" kstp="14" mode="normal"


 TEMPERATURE WILL BE SAVED ON UNIT 1079 AT END OF TIME STEP   14, STRESS PERIOD    6


  ENERGY BUDGET FOR ENTIRE MODEL AT END OF TIME STEP   14, STRESS PERIOD   6
  ---------------------------------------------------------------------------------------------------

     CUMULATIVE ENERGY      E       RATES FOR THIS TIME STEP      E/T          PACKAGE NAME    
     ------------------                 ------------------------                     ----------------

           IN:                                      IN:
           ---                                      ---
     STORAGE-CELLBLK =       8.4793E+13       STORAGE-CELLBLK =      655915.4404     EST                              
                 WEL =       2.4228E+14                   WEL =     3511200.0000     SSM_WELL_INJECT                  
                 WEL =           0.0000                   WEL =           0.0000     SSM_WELL_EXTRACT                 
                 RIV =       4.6921E+13                   RIV =      575545.8752     SSM_RIV                          
                RCHA =       2.1572E+13                  RCHA =      264614.0081     SSM_RCH                          
                 CHD =       1.1968E+14                   CHD =     1467985.8302     SSM_CHD                          

            TOTAL IN =       5.1524E+14              TOTAL IN =     6475261.1539

          OUT:                                     OUT:
          ----                                     ----
     STORAGE-CELLBLK =       1.0874E+14       STORAGE-CELLBLK =     1462022.7012     EST                              
                 WEL =           0.0000                   WEL =           0.0000     SSM_WELL_INJECT                  
                 WEL =       2.1832E+14                   WEL =     2704938.2467     SSM_WELL_EXTRACT                 
                 RIV =       1.2245E+14                   RIV =     1502038.0000     SSM_RIV                          
                RCHA =           0.0000                  RCHA =           0.0000     SSM_RCH                          
                 CHD =       6.5730E+13                   CHD =      806262.2060     SSM_CHD                          

           TOTAL OUT =       5.1524E+14             TOTAL OUT =     6475261.1539

            IN - OUT =           5.3125              IN - OUT =      -1.3690E-07

 PERCENT DISCREPANCY =           0.00     PERCENT DISCREPANCY =          -0.00




         TIME SUMMARY AT END OF TIME STEP   14 IN STRESS PERIOD    6
                    SECONDS     MINUTES      HOURS       DAYS        YEARS
                    -----------------------------------------------------------
   TIME STEP LENGTH 1.31490E+06  21915.      365.25      15.219     4.16667E-02
 STRESS PERIOD TIME 1.84086E+07 3.06810E+05  5113.5      213.06     0.58333    
         TOTAL TIME 8.15238E+07 1.35873E+06  22646.      943.56      2.5833    


end timestep


start timestep kper="7" kstp="1" mode="normal"


 OUTPUT CONTROL FOR STRESS PERIOD 7 IS REPEATED USING SETTINGS FROM A PREVIOUS STRESS PERIOD.

 OPENED gwe.well_inject.spc_perioddata_7.txt
 FILE TYPE:OPEN/CLOSE   UNIT 1087   STATUS:OLD                 
 FORMAT:FORMATTED              ACCESS:SEQUENTIAL          
 ACTION:READ                


end timestep


start timestep kper="7" kstp="2" mode="normal"


end timestep


start timestep kper="7" kstp="3" mode="normal"


end timestep


start timestep kper="7" kstp="4" mode="normal"


end timestep


start timestep kper="7" kstp="5" mode="normal"


end timestep


start timestep kper="7" kstp="6" mode="normal"


end timestep


start timestep kper="7" kstp="7" mode="normal"


end timestep


start timestep kper="7" kstp="8" mode="normal"


end timestep


start timestep kper="7" kstp="9" mode="normal"


end timestep


start timestep kper="7" kstp="10" mode="normal"


 TEMPERATURE WILL BE SAVED ON UNIT 1079 AT END OF TIME STEP   10, STRESS PERIOD    7


  ENERGY BUDGET FOR ENTIRE MODEL AT END OF TIME STEP   10, STRESS PERIOD   7
  ---------------------------------------------------------------------------------------------------

     CUMULATIVE ENERGY      E       RATES FOR THIS TIME STEP      E/T          PACKAGE NAME    
     ------------------                 ------------------------                     ----------------

           IN:                                      IN:
           ---                                      ---
     STORAGE-CELLBLK =       1.1045E+14       STORAGE-CELLBLK =     1690078.6261     EST                              
                 WEL =       2.6646E+14                   WEL =     1839200.0000     SSM_WELL_INJECT                  
                 WEL =           0.0000                   WEL =           0.0000     SSM_WELL_EXTRACT                 
                 RIV =       5.4489E+13                   RIV =      575545.9411     SSM_RIV                          
                RCHA =       2.5052E+13                  RCHA =      264614.0081     SSM_RCH                          
                 CHD =       1.3898E+14                   CHD =     1467985.8306     SSM_CHD                          

            TOTAL IN =       5.9543E+14              TOTAL IN =     5837424.4059

          OUT:                                     OUT:
          ----                                     ----
     STORAGE-CELLBLK =       1.2273E+14       STORAGE-CELLBLK =      788560.7573     EST                              
                 WEL =           0.0000                   WEL =           0.0000     SSM_WELL_INJECT                  
                 WEL =       2.5417E+14                   WEL =     2740564.5388     SSM_WELL_EXTRACT                 
                 RIV =       1.4220E+14                   RIV =     1502036.9704     SSM_RIV                          
                RCHA =           0.0000                  RCHA =           0.0000     SSM_RCH                          
                 CHD =       7.6331E+13                   CHD =      806262.1395     SSM_CHD                          

           TOTAL OUT =       5.9543E+14             TOTAL OUT =     5837424.4059

            IN - OUT =           5.1250              IN - OUT =       4.8429E-08

 PERCENT DISCREPANCY =           0.00     PERCENT DISCREPANCY =           0.00




         TIME SUMMARY AT END OF TIME STEP   10 IN STRESS PERIOD    7
                    SECONDS     MINUTES      HOURS       DAYS        YEARS
                    -----------------------------------------------------------
   TIME STEP LENGTH 1.31490E+06  21915.      365.25      15.219     4.16667E-02
 STRESS PERIOD TIME 1.31490E+07 2.19150E+05  3652.5      152.19     0.41667    
         TOTAL TIME 9.46728E+07 1.57788E+06  26298.      1095.8      3.0000    


end timestep


start timestep kper="8" kstp="1" mode="normal"


 OUTPUT CONTROL FOR STRESS PERIOD 8 IS REPEATED USING SETTINGS FROM A PREVIOUS STRESS PERIOD.

 OPENED gwe.well_inject.spc_perioddata_8.txt
 FILE TYPE:OPEN/CLOSE   UNIT 1088   STATUS:OLD                 
 FORMAT:FORMATTED              ACCESS:SEQUENTIAL          
 ACTION:READ                


end timestep


start timestep kper="8" kstp="2" mode="normal"


end timestep


start timestep kper="8" kstp="3" mode="normal"


end timestep


start timestep kper="8" kstp="4" mode="normal"


end timestep


start timestep kper="8" kstp="5" mode="normal"


end timestep


start timestep kper="8" kstp="6" mode="normal"


end timestep


start timestep kper="8" kstp="7" mode="normal"


end timestep


start timestep kper="8" kstp="8" mode="normal"


end timestep


start timestep kper="8" kstp="9" mode="normal"


end timestep


start timestep kper="8" kstp="10" mode="normal"


end timestep


start timestep kper="8" kstp="11" mode="normal"


end timestep


start timestep kper="8" kstp="12" mode="normal"


end timestep


start timestep kper="8" kstp="13" mode="normal"


end timestep


start timestep kper="8" kstp="14" mode="normal"


 TEMPERATURE WILL BE SAVED ON UNIT 1079 AT END OF TIME STEP   14, STRESS PERIOD    8


  ENERGY BUDGET FOR ENTIRE MODEL AT END OF TIME STEP   14, STRESS PERIOD   8
  ---------------------------------------------------------------------------------------------------

     CUMULATIVE ENERGY      E       RATES FOR THIS TIME STEP      E/T          PACKAGE NAME    
     ------------------                 ------------------------                     ----------------

           IN:                                      IN:
           ---                                      ---
     STORAGE-CELLBLK =       1.2942E+14       STORAGE-CELLBLK =      624962.8431     EST                              
                 WEL =       3.3110E+14                   WEL =     3511200.0000     SSM_WELL_INJECT                  
                 WEL =           0.0000                   WEL =           0.0000     SSM_WELL_EXTRACT                 
                 RIV =       6.5084E+13                   RIV =      575546.3375     SSM_RIV                          
                RCHA =       2.9923E+13                  RCHA =      264614.0081     SSM_RCH                          
                 CHD =       1.6600E+14                   CHD =     1467985.9502     SSM_CHD                          

            TOTAL IN =       7.2153E+14              TOTAL IN =     6444309.1388

          OUT:                                     OUT:
          ----                                     ----
     STORAGE-CELLBLK =       1.5586E+14       STORAGE-CELLBLK =     1398498.2510     EST                              
                 WEL =           0.0000                   WEL =           0.0000     SSM_WELL_INJECT                  
                 WEL =       3.0464E+14                   WEL =     2737514.1212     SSM_WELL_EXTRACT                 
                 RIV =       1.6985E+14                   RIV =     1502034.7325     SSM_RIV                          
                RCHA =           0.0000                  RCHA =           0.0000     SSM_RCH                          
                 CHD =       9.1173E+13                   CHD =      806262.0342     SSM_CHD                          

           TOTAL OUT =       7.2153E+14             TOTAL OUT =     6444309.1388

            IN - OUT =          -4.8750              IN - OUT =      -1.2573E-06

 PERCENT DISCREPANCY =          -0.00     PERCENT DISCREPANCY =          -0.00




         TIME SUMMARY AT END OF TIME STEP   14 IN STRESS PERIOD    8
                    SECONDS     MINUTES      HOURS       DAYS        YEARS
                    -----------------------------------------------------------
   TIME STEP LENGTH 1.31490E+06  21915.      365.25      15.219     4.16667E-02
 STRESS PERIOD TIME 1.84086E+07 3.06810E+05  5113.5      213.06     0.58333    
         TOTAL TIME 1.13081E+08 1.88469E+06  31412.      1308.8      3.5833    


end timestep


start timestep kper="9" kstp="1" mode="normal"


 OUTPUT CONTROL FOR STRESS PERIOD 9 IS REPEATED USING SETTINGS FROM A PREVIOUS STRESS PERIOD.

 OPENED gwe.well_inject.spc_perioddata_9.txt
 FILE TYPE:OPEN/CLOSE   UNIT 1089   STATUS:OLD                 
 FORMAT:FORMATTED              ACCESS:SEQUENTIAL          
 ACTION:READ                


end timestep


start timestep kper="9" kstp="2" mode="normal"


end timestep


start timestep kper="9" kstp="3" mode="normal"


end timestep


start timestep kper="9" kstp="4" mode="normal"


end timestep


start timestep kper="9" kstp="5" mode="normal"


end timestep


start timestep kper="9" kstp="6" mode="normal"


end timestep


start timestep kper="9" kstp="7" mode="normal"


end timestep


start timestep kper="9" kstp="8" mode="normal"


end timestep


start timestep kper="9" kstp="9" mode="normal"


end timestep


start timestep kper="9" kstp="10" mode="normal"


 TEMPERATURE WILL BE SAVED ON UNIT 1079 AT END OF TIME STEP   10, STRESS PERIOD    9


  ENERGY BUDGET FOR ENTIRE MODEL AT END OF TIME STEP   10, STRESS PERIOD   9
  ---------------------------------------------------------------------------------------------------

     CUMULATIVE ENERGY      E       RATES FOR THIS TIME STEP      E/T          PACKAGE NAME    
     ------------------                 ------------------------                     ----------------

           IN:                                      IN:
           ---                                      ---
     STORAGE-CELLBLK =       1.5489E+14       STORAGE-CELLBLK =     1684292.6773     EST                              
                 WEL =       3.5528E+14                   WEL =     1839200.0000     SSM_WELL_INJECT                  
                 WEL =           0.0000                   WEL =           0.0000     SSM_WELL_EXTRACT                 
                 RIV =       7.2652E+13                   RIV =      575546.7655     SSM_RIV                          
                RCHA =       3.3402E+13                  RCHA =      264614.0081     SSM_RCH                          
                 CHD =       1.8530E+14                   CHD =     1467986.0914     SSM_CHD                          

            TOTAL IN =       8.0153E+14              TOTAL IN =     5831639.5423

          OUT:                                     OUT:
          ----                                     ----
     STORAGE-CELLBLK =       1.6951E+14       STORAGE-CELLBLK =      784341.0430     EST                              
                 WEL =           0.0000                   WEL =           0.0000     SSM_WELL_INJECT                  
                 WEL =       3.4064E+14                   WEL =     2739003.7678     SSM_WELL_EXTRACT                 
                 RIV =       1.8960E+14                   RIV =     1502032.7764     SSM_RIV                          
                RCHA =           0.0000                  RCHA =           0.0000     SSM_RCH                          
                 CHD =       1.0177E+14                   CHD =      806261.9551     SSM_CHD                          

           TOTAL OUT =       8.0153E+14             TOTAL OUT =     5831639.5423

            IN - OUT =          -4.3750              IN - OUT =      -5.7742E-08

 PERCENT DISCREPANCY =          -0.00     PERCENT DISCREPANCY =          -0.00




         TIME SUMMARY AT END OF TIME STEP   10 IN STRESS PERIOD    9
                    SECONDS     MINUTES      HOURS       DAYS        YEARS
                    -----------------------------------------------------------
   TIME STEP LENGTH 1.31490E+06  21915.      365.25      15.219     4.16667E-02
 STRESS PERIOD TIME 1.31490E+07 2.19150E+05  3652.5      152.19     0.41667    
         TOTAL TIME 1.26230E+08 2.10384E+06  35064.      1461.0      4.0000    


end timestep


start timestep kper="10" kstp="1" mode="normal"


 OUTPUT CONTROL FOR STRESS PERIOD 10 IS REPEATED USING SETTINGS FROM A PREVIOUS STRESS PERIOD.

 OPENED gwe.well_inject.spc_perioddata_10.txt
 FILE TYPE:OPEN/CLOSE   UNIT 1090   STATUS:OLD                 
 FORMAT:FORMATTED              ACCESS:SEQUENTIAL          
 ACTION:READ                


end timestep


start timestep kper="10" kstp="2" mode="normal"


end timestep


start timestep kper="10" kstp="3" mode="normal"


end timestep


start timestep kper="10" kstp="4" mode="normal"


end timestep


start timestep kper="10" kstp="5" mode="normal"


end timestep


start timestep kper="10" kstp="6" mode="normal"


end timestep


start timestep kper="10" kstp="7" mode="normal"


end timestep


start timestep kper="10" kstp="8" mode="normal"


end timestep


start timestep kper="10" kstp="9" mode="normal"


end timestep


start timestep kper="10" kstp="10" mode="normal"


end timestep


start timestep kper="10" kstp="11" mode="normal"


end timestep


start timestep kper="10" kstp="12" mode="normal"


end timestep


start timestep kper="10" kstp="13" mode="normal"


end timestep


start timestep kper="10" kstp="14" mode="normal"


 TEMPERATURE WILL BE SAVED ON UNIT 1079 AT END OF TIME STEP   14, STRESS PERIOD   10


  ENERGY BUDGET FOR ENTIRE MODEL AT END OF TIME STEP   14, STRESS PERIOD  10
  ---------------------------------------------------------------------------------------------------

     CUMULATIVE ENERGY      E       RATES FOR THIS TIME STEP      E/T          PACKAGE NAME    
     ------------------                 ------------------------                     ----------------

           IN:                                      IN:
           ---                                      ---
     STORAGE-CELLBLK =       1.7358E+14       STORAGE-CELLBLK =      603100.0346     EST                              
                 WEL =       4.1992E+14                   WEL =     3511200.0000     SSM_WELL_INJECT                  
                 WEL =           0.0000                   WEL =           0.0000     SSM_WELL_EXTRACT                 
                 RIV =       8.3247E+13                   RIV =      575547.4900     SSM_RIV                          
                RCHA =       3.8274E+13                  RCHA =      264614.0081     SSM_RCH                          
                 CHD =       2.1233E+14                   CHD =     1467986.3382     SSM_CHD                          

            TOTAL IN =       9.2734E+14              TOTAL IN =     6422447.8709

          OUT:                                     OUT:
          ----                                     ----
     STORAGE-CELLBLK =       2.0246E+14       STORAGE-CELLBLK =     1381632.8065     EST                              
                 WEL =           0.0000                   WEL =           0.0000     SSM_WELL_INJECT                  
                 WEL =       3.9101E+14                   WEL =     2732523.4751     SSM_WELL_EXTRACT                 
                 RIV =       2.1725E+14                   RIV =     1502029.7460     SSM_RIV                          
                RCHA =           0.0000                  RCHA =           0.0000     SSM_RCH                          
                 CHD =       1.1662E+14                   CHD =      806261.8434     SSM_CHD                          

           TOTAL OUT =       9.2734E+14             TOTAL OUT =     6422447.8709

            IN - OUT =          -4.0000              IN - OUT =      -1.9092E-07

 PERCENT DISCREPANCY =          -0.00     PERCENT DISCREPANCY =          -0.00




         TIME SUMMARY AT END OF TIME STEP   14 IN STRESS PERIOD   10
                    SECONDS     MINUTES      HOURS       DAYS        YEARS
                    -----------------------------------------------------------
   TIME STEP LENGTH 1.31490E+06  21915.      365.25      15.219     4.16667E-02
 STRESS PERIOD TIME 1.84086E+07 3.06810E+05  5113.5      213.06     0.58333    
         TOTAL TIME 1.44639E+08 2.41065E+06  40178.      1674.1      4.5833    


end timestep


start timestep kper="11" kstp="1" mode="normal"


 OUTPUT CONTROL FOR STRESS PERIOD 11 IS REPEATED USING SETTINGS FROM A PREVIOUS STRESS PERIOD.

 OPENED gwe.well_inject.spc_perioddata_11.txt
 FILE TYPE:OPEN/CLOSE   UNIT 1091   STATUS:OLD                 
 FORMAT:FORMATTED              ACCESS:SEQUENTIAL          
 ACTION:READ                


end timestep


start timestep kper="11" kstp="2" mode="normal"


end timestep


start timestep kper="11" kstp="3" mode="normal"


end timestep


start timestep kper="11" kstp="4" mode="normal"


end timestep


start timestep kper="11" kstp="5" mode="normal"


end timestep


start timestep kper="11" kstp="6" mode="normal"


end timestep


start timestep kper="11" kstp="7" mode="normal"


end timestep


start timestep kper="11" kstp="8" mode="normal"


end timestep


start timestep kper="11" kstp="9" mode="normal"


end timestep


start timestep kper="11" kstp="10" mode="normal"


 TEMPERATURE WILL BE SAVED ON UNIT 1079 AT END OF TIME STEP   10, STRESS PERIOD   11


  ENERGY BUDGET FOR ENTIRE MODEL AT END OF TIME STEP   10, STRESS PERIOD  11
  ---------------------------------------------------------------------------------------------------

     CUMULATIVE ENERGY      E       RATES FOR THIS TIME STEP      E/T          PACKAGE NAME    
     ------------------                 ------------------------                     ----------------

           IN:                                      IN:
           ---                                      ---
     STORAGE-CELLBLK =       1.9878E+14       STORAGE-CELLBLK =     1666526.7750     EST                              
                 WEL =       4.4410E+14                   WEL =     1839200.0000     SSM_WELL_INJECT                  
                 WEL =           0.0000                   WEL =           0.0000     SSM_WELL_EXTRACT                 
                 RIV =       9.0815E+13                   RIV =      575548.0662     SSM_RIV                          
                RCHA =       4.1753E+13                  RCHA =      264614.0081     SSM_RCH                          
                 CHD =       2.3163E+14                   CHD =     1467986.5375     SSM_CHD                          

            TOTAL IN =       1.0071E+15              TOTAL IN =     5813875.3868

          OUT:                                     OUT:
          ----                                     ----
     STORAGE-CELLBLK =       2.1589E+14       STORAGE-CELLBLK =      767767.7103     EST                              
                 WEL =           0.0000                   WEL =           0.0000     SSM_WELL_INJECT                  
                 WEL =       4.2697E+14                   WEL =     2737818.4499     SSM_WELL_EXTRACT                 
                 RIV =       2.3700E+14                   RIV =     1502027.4621     SSM_RIV                          
                RCHA =           0.0000                  RCHA =           0.0000     SSM_RCH                          
                 CHD =       1.2722E+14                   CHD =      806261.7645     SSM_CHD                          

           TOTAL OUT =       1.0071E+15             TOTAL OUT =     5813875.3868

            IN - OUT =          -4.1250              IN - OUT =      -3.7253E-09

 PERCENT DISCREPANCY =          -0.00     PERCENT DISCREPANCY =          -0.00




         TIME SUMMARY AT END OF TIME STEP   10 IN STRESS PERIOD   11
                    SECONDS     MINUTES      HOURS       DAYS        YEARS
                    -----------------------------------------------------------
   TIME STEP LENGTH 1.31490E+06  21915.      365.25      15.219     4.16667E-02
 STRESS PERIOD TIME 1.31490E+07 2.19150E+05  3652.5      152.19     0.41667    
         TOTAL TIME 1.57788E+08 2.62980E+06  43830.      1826.3      5.0000    


end timestep


start timestep kper="12" kstp="1" mode="normal"


 OUTPUT CONTROL FOR STRESS PERIOD 12 IS REPEATED USING SETTINGS FROM A PREVIOUS STRESS PERIOD.

 OPENED gwe.well_inject.spc_perioddata_12.txt
 FILE TYPE:OPEN/CLOSE   UNIT 1092   STATUS:OLD                 
 FORMAT:FORMATTED              ACCESS:SEQUENTIAL          
 ACTION:READ                


end timestep


start timestep kper="12" kstp="2" mode="normal"


end timestep


start timestep kper="12" kstp="3" mode="normal"


end timestep


start timestep kper="12" kstp="4" mode="normal"


end timestep


start timestep kper="12" kstp="5" mode="normal"


end timestep


start timestep kper="12" kstp="6" mode="normal"


end timestep


start timestep kper="12" kstp="7" mode="normal"


end timestep


start timestep kper="12" kstp="8" mode="normal"


end timestep


start timestep kper="12" kstp="9" mode="normal"


end timestep


start timestep kper="12" kstp="10" mode="normal"


end timestep


start timestep kper="12" kstp="11" mode="normal"


end timestep


start timestep kper="12" kstp="12" mode="normal"


end timestep


start timestep kper="12" kstp="13" mode="normal"


end timestep


start timestep kper="12" kstp="14" mode="normal"


 TEMPERATURE WILL BE SAVED ON UNIT 1079 AT END OF TIME STEP   14, STRESS PERIOD   12


  ENERGY BUDGET FOR ENTIRE MODEL AT END OF TIME STEP   14, STRESS PERIOD  12
  ---------------------------------------------------------------------------------------------------

     CUMULATIVE ENERGY      E       RATES FOR THIS TIME STEP      E/T          PACKAGE NAME    
     ------------------                 ------------------------                     ----------------

           IN:                                      IN:
           ---                                      ---
     STORAGE-CELLBLK =       2.1726E+14       STORAGE-CELLBLK =      594953.0723     EST                              
                 WEL =       5.0874E+14                   WEL =     3511200.0000     SSM_WELL_INJECT                  
                 WEL =           0.0000                   WEL =           0.0000     SSM_WELL_EXTRACT                 
                 RIV =       1.0141E+14                   RIV =      575548.9204     SSM_RIV                          
                RCHA =       4.6624E+13                  RCHA =      264614.0081     SSM_RCH                          
                 CHD =       2.5865E+14                   CHD =     1467986.8363     SSM_CHD                          

            TOTAL IN =       1.1327E+15              TOTAL IN =     6414302.8372

          OUT:                                     OUT:
          ----                                     ----
     STORAGE-CELLBLK =       2.4863E+14       STORAGE-CELLBLK =     1372570.4651     EST                              
                 WEL =           0.0000                   WEL =           0.0000     SSM_WELL_INJECT                  
                 WEL =       4.7734E+14                   WEL =     2733446.5190     SSM_WELL_EXTRACT                 
                 RIV =       2.6465E+14                   RIV =     1502024.1965     SSM_RIV                          
                RCHA =           0.0000                  RCHA =           0.0000     SSM_RCH                          
                 CHD =       1.4206E+14                   CHD =      806261.6567     SSM_CHD                          

           TOTAL OUT =       1.1327E+15             TOTAL OUT =     6414302.8372

            IN - OUT =          -4.2500              IN - OUT =      -7.3574E-07

 PERCENT DISCREPANCY =          -0.00     PERCENT DISCREPANCY =          -0.00




         TIME SUMMARY AT END OF TIME STEP   14 IN STRESS PERIOD   12
                    SECONDS     MINUTES      HOURS       DAYS        YEARS
                    -----------------------------------------------------------
   TIME STEP LENGTH 1.31490E+06  21915.      365.25      15.219     4.16667E-02
 STRESS PERIOD TIME 1.84086E+07 3.06810E+05  5113.5      213.06     0.58333    
         TOTAL TIME 1.76197E+08 2.93661E+06  48944.      2039.3      5.5833    


end timestep


start timestep kper="13" kstp="1" mode="normal"


 OUTPUT CONTROL FOR STRESS PERIOD 13 IS REPEATED USING SETTINGS FROM A PREVIOUS STRESS PERIOD.

 OPENED gwe.well_inject.spc_perioddata_13.txt
 FILE TYPE:OPEN/CLOSE   UNIT 1093   STATUS:OLD                 
 FORMAT:FORMATTED              ACCESS:SEQUENTIAL          
 ACTION:READ                


end timestep


start timestep kper="13" kstp="2" mode="normal"


end timestep


start timestep kper="13" kstp="3" mode="normal"


end timestep


start timestep kper="13" kstp="4" mode="normal"


end timestep


start timestep kper="13" kstp="5" mode="normal"


end timestep


start timestep kper="13" kstp="6" mode="normal"


end timestep


start timestep kper="13" kstp="7" mode="normal"


end timestep


start timestep kper="13" kstp="8" mode="normal"


end timestep


start timestep kper="13" kstp="9" mode="normal"


end timestep


start timestep kper="13" kstp="10" mode="normal"


 TEMPERATURE WILL BE SAVED ON UNIT 1079 AT END OF TIME STEP   10, STRESS PERIOD   13


  ENERGY BUDGET FOR ENTIRE MODEL AT END OF TIME STEP   10, STRESS PERIOD  13
  ---------------------------------------------------------------------------------------------------

     CUMULATIVE ENERGY      E       RATES FOR THIS TIME STEP      E/T          PACKAGE NAME    
     ------------------                 ------------------------                     ----------------

           IN:                                      IN:
           ---                                      ---
     STORAGE-CELLBLK =       2.4236E+14       STORAGE-CELLBLK =     1658090.4745     EST                              
                 WEL =       5.3292E+14                   WEL =     1839200.0000     SSM_WELL_INJECT                  
                 WEL =           0.0000                   WEL =           0.0000     SSM_WELL_EXTRACT                 
                 RIV =       1.0898E+14                   RIV =      575549.5513     SSM_RIV                          
                RCHA =       5.0103E+13                  RCHA =      264614.0081     SSM_RCH                          
                 CHD =       2.7796E+14                   CHD =     1467987.0585     SSM_CHD                          

            TOTAL IN =       1.2123E+15              TOTAL IN =     5805441.0924

          OUT:                                     OUT:
          ----                                     ----
     STORAGE-CELLBLK =       2.6193E+14       STORAGE-CELLBLK =      757948.3701     EST                              
                 WEL =           0.0000                   WEL =           0.0000     SSM_WELL_INJECT                  
                 WEL =       5.1332E+14                   WEL =     2739209.2852     SSM_WELL_EXTRACT                 
                 RIV =       2.8440E+14                   RIV =     1502021.8551     SSM_RIV                          
                RCHA =           0.0000                  RCHA =           0.0000     SSM_RCH                          
                 CHD =       1.5266E+14                   CHD =      806261.5819     SSM_CHD                          

           TOTAL OUT =       1.2123E+15             TOTAL OUT =     5805441.0924

            IN - OUT =          -4.0000              IN - OUT =       1.0245E-08

 PERCENT DISCREPANCY =          -0.00     PERCENT DISCREPANCY =           0.00




         TIME SUMMARY AT END OF TIME STEP   10 IN STRESS PERIOD   13
                    SECONDS     MINUTES      HOURS       DAYS        YEARS
                    -----------------------------------------------------------
   TIME STEP LENGTH 1.31490E+06  21915.      365.25      15.219     4.16667E-02
 STRESS PERIOD TIME 1.31490E+07 2.19150E+05  3652.5      152.19     0.41667    
         TOTAL TIME 1.89346E+08 3.15576E+06  52596.      2191.5      6.0000    


end timestep


start timestep kper="14" kstp="1" mode="normal"


 OUTPUT CONTROL FOR STRESS PERIOD 14 IS REPEATED USING SETTINGS FROM A PREVIOUS STRESS PERIOD.

 OPENED gwe.well_inject.spc_perioddata_14.txt
 FILE TYPE:OPEN/CLOSE   UNIT 1094   STATUS:OLD                 
 FORMAT:FORMATTED              ACCESS:SEQUENTIAL          
 ACTION:READ                


end timestep


start timestep kper="14" kstp="2" mode="normal"


end timestep


start timestep kper="14" kstp="3" mode="normal"


end timestep


start timestep kper="14" kstp="4" mode="normal"


end timestep


start timestep kper="14" kstp="5" mode="normal"


end timestep


start timestep kper="14" kstp="6" mode="normal"


end timestep


start timestep kper="14" kstp="7" mode="normal"


end timestep


start timestep kper="14" kstp="8" mode="normal"


end timestep


start timestep kper="14" kstp="9" mode="normal"


end timestep


start timestep kper="14" kstp="10" mode="normal"


end timestep


start timestep kper="14" kstp="11" mode="normal"


end timestep


start timestep kper="14" kstp="12" mode="normal"


end timestep


start timestep kper="14" kstp="13" mode="normal"


end timestep


start timestep kper="14" kstp="14" mode="normal"


 TEMPERATURE WILL BE SAVED ON UNIT 1079 AT END OF TIME STEP   14, STRESS PERIOD   14


  ENERGY BUDGET FOR ENTIRE MODEL AT END OF TIME STEP   14, STRESS PERIOD  14
  ---------------------------------------------------------------------------------------------------

     CUMULATIVE ENERGY      E       RATES FOR THIS TIME STEP      E/T          PACKAGE NAME    
     ------------------                 ------------------------                     ----------------

           IN:                                      IN:
           ---                                      ---
     STORAGE-CELLBLK =       2.6071E+14       STORAGE-CELLBLK =      589599.8191     EST                              
                 WEL =       5.9756E+14                   WEL =     3511200.0000     SSM_WELL_INJECT                  
                 WEL =           0.0000                   WEL =           0.0000     SSM_WELL_EXTRACT                 
                 RIV =       1.1957E+14                   RIV =      575550.4435     SSM_RIV                          
                RCHA =       5.4975E+13                  RCHA =      264614.0081     SSM_RCH                          
                 CHD =       3.0498E+14                   CHD =     1467987.3760     SSM_CHD                          

            TOTAL IN =       1.3378E+15              TOTAL IN =     6408951.6467

          OUT:                                     OUT:
          ----                                     ----
     STORAGE-CELLBLK =       2.9451E+14       STORAGE-CELLBLK =     1365616.4473     EST                              
                 WEL =           0.0000                   WEL =           0.0000     SSM_WELL_INJECT                  
                 WEL =       5.6372E+14                   WEL =     2735055.1204     SSM_WELL_EXTRACT                 
                 RIV =       3.1205E+14                   RIV =     1502018.5983     SSM_RIV                          
                RCHA =           0.0000                  RCHA =           0.0000     SSM_RCH                          
                 CHD =       1.6750E+14                   CHD =      806261.4808     SSM_CHD                          

           TOTAL OUT =       1.3378E+15             TOTAL OUT =     6408951.6467

            IN - OUT =          -6.5000              IN - OUT =      -1.2424E-06

 PERCENT DISCREPANCY =          -0.00     PERCENT DISCREPANCY =          -0.00




         TIME SUMMARY AT END OF TIME STEP   14 IN STRESS PERIOD   14
                    SECONDS     MINUTES      HOURS       DAYS        YEARS
                    -----------------------------------------------------------
   TIME STEP LENGTH 1.31490E+06  21915.      365.25      15.219     4.16667E-02
 STRESS PERIOD TIME 1.84086E+07 3.06810E+05  5113.5      213.06     0.58333    
         TOTAL TIME 2.07754E+08 3.46257E+06  57710.      2404.6      6.5833    


end timestep


start timestep kper="15" kstp="1" mode="normal"


 OUTPUT CONTROL FOR STRESS PERIOD 15 IS REPEATED USING SETTINGS FROM A PREVIOUS STRESS PERIOD.

 OPENED gwe.well_inject.spc_perioddata_15.txt
 FILE TYPE:OPEN/CLOSE   UNIT 1095   STATUS:OLD                 
 FORMAT:FORMATTED              ACCESS:SEQUENTIAL          
 ACTION:READ                


end timestep


start timestep kper="15" kstp="2" mode="normal"


end timestep


start timestep kper="15" kstp="3" mode="normal"


end timestep


start timestep kper="15" kstp="4" mode="normal"


end timestep


start timestep kper="15" kstp="5" mode="normal"


end timestep


start timestep kper="15" kstp="6" mode="normal"


end timestep


start timestep kper="15" kstp="7" mode="normal"


end timestep


start timestep kper="15" kstp="8" mode="normal"


end timestep


start timestep kper="15" kstp="9" mode="normal"


end timestep


start timestep kper="15" kstp="10" mode="normal"


 TEMPERATURE WILL BE SAVED ON UNIT 1079 AT END OF TIME STEP   10, STRESS PERIOD   15


  ENERGY BUDGET FOR ENTIRE MODEL AT END OF TIME STEP   10, STRESS PERIOD  15
  ---------------------------------------------------------------------------------------------------

     CUMULATIVE ENERGY      E       RATES FOR THIS TIME STEP      E/T          PACKAGE NAME    
     ------------------                 ------------------------                     ----------------

           IN:                                      IN:
           ---                                      ---
     STORAGE-CELLBLK =       2.8574E+14       STORAGE-CELLBLK =     1653600.0635     EST                              
                 WEL =       6.2174E+14                   WEL =     1839200.0000     SSM_WELL_INJECT                  
                 WEL =           0.0000                   WEL =           0.0000     SSM_WELL_EXTRACT                 
                 RIV =       1.2714E+14                   RIV =      575551.0842     SSM_RIV                          
                RCHA =       5.8454E+13                  RCHA =      264614.0081     SSM_RCH                          
                 CHD =       3.2428E+14                   CHD =     1467987.6048     SSM_CHD                          

            TOTAL IN =       1.4174E+15              TOTAL IN =     5800952.7605

          OUT:                                     OUT:
          ----                                     ----
     STORAGE-CELLBLK =       3.0773E+14       STORAGE-CELLBLK =      751827.2262     EST                              
                 WEL =           0.0000                   WEL =           0.0000     SSM_WELL_INJECT                  
                 WEL =       5.9972E+14                   WEL =     2740847.8159     SSM_WELL_EXTRACT                 
                 RIV =       3.3180E+14                   RIV =     1502016.3074     SSM_RIV                          
                RCHA =           0.0000                  RCHA =           0.0000     SSM_RCH                          
                 CHD =       1.7811E+14                   CHD =      806261.4111     SSM_CHD                          

           TOTAL OUT =       1.4174E+15             TOTAL OUT =     5800952.7605

            IN - OUT =          -6.5000              IN - OUT =       4.1910E-08

 PERCENT DISCREPANCY =          -0.00     PERCENT DISCREPANCY =           0.00




         TIME SUMMARY AT END OF TIME STEP   10 IN STRESS PERIOD   15
                    SECONDS     MINUTES      HOURS       DAYS        YEARS
                    -----------------------------------------------------------
   TIME STEP LENGTH 1.31490E+06  21915.      365.25      15.219     4.16667E-02
 STRESS PERIOD TIME 1.31490E+07 2.19150E+05  3652.5      152.19     0.41667    
         TOTAL TIME 2.20903E+08 3.68172E+06  61362.      2556.8      7.0000    


end timestep


start timestep kper="16" kstp="1" mode="normal"


 OUTPUT CONTROL FOR STRESS PERIOD 16 IS REPEATED USING SETTINGS FROM A PREVIOUS STRESS PERIOD.

 OPENED gwe.well_inject.spc_perioddata_16.txt
 FILE TYPE:OPEN/CLOSE   UNIT 1096   STATUS:OLD                 
 FORMAT:FORMATTED              ACCESS:SEQUENTIAL          
 ACTION:READ                


end timestep


start timestep kper="16" kstp="2" mode="normal"


end timestep


start timestep kper="16" kstp="3" mode="normal"


end timestep


start timestep kper="16" kstp="4" mode="normal"


end timestep


start timestep kper="16" kstp="5" mode="normal"


end timestep


start timestep kper="16" kstp="6" mode="normal"


end timestep


start timestep kper="16" kstp="7" mode="normal"


end timestep


start timestep kper="16" kstp="8" mode="normal"


end timestep


start timestep kper="16" kstp="9" mode="normal"


end timestep


start timestep kper="16" kstp="10" mode="normal"


end timestep


start timestep kper="16" kstp="11" mode="normal"


end timestep


start timestep kper="16" kstp="12" mode="normal"


end timestep


start timestep kper="16" kstp="13" mode="normal"


end timestep


start timestep kper="16" kstp="14" mode="normal"


 TEMPERATURE WILL BE SAVED ON UNIT 1079 AT END OF TIME STEP   14, STRESS PERIOD   16


  ENERGY BUDGET FOR ENTIRE MODEL AT END OF TIME STEP   14, STRESS PERIOD  16
  ---------------------------------------------------------------------------------------------------

     CUMULATIVE ENERGY      E       RATES FOR THIS TIME STEP      E/T          PACKAGE NAME    
     ------------------                 ------------------------                     ----------------

           IN:                                      IN:
           ---                                      ---
     STORAGE-CELLBLK =       3.0402E+14       STORAGE-CELLBLK =      586193.9513     EST                              
                 WEL =       6.8638E+14                   WEL =     3511200.0000     SSM_WELL_INJECT                  
                 WEL =           0.0000                   WEL =           0.0000     SSM_WELL_EXTRACT                 
                 RIV =       1.3774E+14                   RIV =      575551.9696     SSM_RIV                          
                RCHA =       6.3325E+13                  RCHA =      264614.0081     SSM_RCH                          
                 CHD =       3.5131E+14                   CHD =     1467987.9251     SSM_CHD                          

            TOTAL IN =       1.5428E+15              TOTAL IN =     6405547.8540

          OUT:                                     OUT:
          ----                                     ----
     STORAGE-CELLBLK =       3.4021E+14       STORAGE-CELLBLK =     1360581.9959     EST                              
                 WEL =           0.0000                   WEL =           0.0000     SSM_WELL_INJECT                  
                 WEL =       6.5015E+14                   WEL =     2736691.3807     SSM_WELL_EXTRACT                 
                 RIV =       3.5945E+14                   RIV =     1502013.1603     SSM_RIV                          
                RCHA =           0.0000                  RCHA =           0.0000     SSM_RCH                          
                 CHD =       1.9295E+14                   CHD =      806261.3171     SSM_CHD                          

           TOTAL OUT =       1.5428E+15             TOTAL OUT =     6405547.8540

            IN - OUT =          -8.0000              IN - OUT =      -1.2387E-06

 PERCENT DISCREPANCY =          -0.00     PERCENT DISCREPANCY =          -0.00




         TIME SUMMARY AT END OF TIME STEP   14 IN STRESS PERIOD   16
                    SECONDS     MINUTES      HOURS       DAYS        YEARS
                    -----------------------------------------------------------
   TIME STEP LENGTH 1.31490E+06  21915.      365.25      15.219     4.16667E-02
 STRESS PERIOD TIME 1.84086E+07 3.06810E+05  5113.5      213.06     0.58333    
         TOTAL TIME 2.39312E+08 3.98853E+06  66476.      2769.8      7.5833    


end timestep


start timestep kper="17" kstp="1" mode="normal"


 OUTPUT CONTROL FOR STRESS PERIOD 17 IS REPEATED USING SETTINGS FROM A PREVIOUS STRESS PERIOD.

 OPENED gwe.well_inject.spc_perioddata_17.txt
 FILE TYPE:OPEN/CLOSE   UNIT 1097   STATUS:OLD                 
 FORMAT:FORMATTED              ACCESS:SEQUENTIAL          
 ACTION:READ                


end timestep


start timestep kper="17" kstp="2" mode="normal"


end timestep


start timestep kper="17" kstp="3" mode="normal"


end timestep


start timestep kper="17" kstp="4" mode="normal"


end timestep


start timestep kper="17" kstp="5" mode="normal"


end timestep


start timestep kper="17" kstp="6" mode="normal"


end timestep


start timestep kper="17" kstp="7" mode="normal"


end timestep


start timestep kper="17" kstp="8" mode="normal"


end timestep


start timestep kper="17" kstp="9" mode="normal"


end timestep


start timestep kper="17" kstp="10" mode="normal"


 TEMPERATURE WILL BE SAVED ON UNIT 1079 AT END OF TIME STEP   10, STRESS PERIOD   17


  ENERGY BUDGET FOR ENTIRE MODEL AT END OF TIME STEP   10, STRESS PERIOD  17
  ---------------------------------------------------------------------------------------------------

     CUMULATIVE ENERGY      E       RATES FOR THIS TIME STEP      E/T          PACKAGE NAME    
     ------------------                 ------------------------                     ----------------

           IN:                                      IN:
           ---                                      ---
     STORAGE-CELLBLK =       3.2901E+14       STORAGE-CELLBLK =     1650754.0570     EST                              
                 WEL =       7.1056E+14                   WEL =     1839200.0000     SSM_WELL_INJECT                  
                 WEL =           0.0000                   WEL =           0.0000     SSM_WELL_EXTRACT                 
                 RIV =       1.4530E+14                   RIV =      575552.5966     SSM_RIV                          
                RCHA =       6.6805E+13                  RCHA =      264614.0081     SSM_RCH                          
                 CHD =       3.7061E+14                   CHD =     1467988.1524     SSM_CHD                          

            TOTAL IN =       1.6223E+15              TOTAL IN =     5798108.8140

          OUT:                                     OUT:
          ----                                     ----
     STORAGE-CELLBLK =       3.5337E+14       STORAGE-CELLBLK =      747382.1709     EST                              
                 WEL =           0.0000                   WEL =           0.0000     SSM_WELL_INJECT                  
                 WEL =       6.8617E+14                   WEL =     2742454.4249     SSM_WELL_EXTRACT                 
                 RIV =       3.7920E+14                   RIV =     1502010.9658     SSM_RIV                          
                RCHA =           0.0000                  RCHA =           0.0000     SSM_RCH                          
                 CHD =       2.0355E+14                   CHD =      806261.2524     SSM_CHD                          

           TOTAL OUT =       1.6223E+15             TOTAL OUT =     5798108.8140

            IN - OUT =          -7.5000              IN - OUT =      -4.5635E-08

 PERCENT DISCREPANCY =          -0.00     PERCENT DISCREPANCY =          -0.00




         TIME SUMMARY AT END OF TIME STEP   10 IN STRESS PERIOD   17
                    SECONDS     MINUTES      HOURS       DAYS        YEARS
                    -----------------------------------------------------------
   TIME STEP LENGTH 1.31490E+06  21915.      365.25      15.219     4.16667E-02
 STRESS PERIOD TIME 1.31490E+07 2.19150E+05  3652.5      152.19     0.41667    
         TOTAL TIME 2.52461E+08 4.20768E+06  70128.      2922.0      8.0000    


end timestep


start timestep kper="18" kstp="1" mode="normal"


 OUTPUT CONTROL FOR STRESS PERIOD 18 IS REPEATED USING SETTINGS FROM A PREVIOUS STRESS PERIOD.

 OPENED gwe.well_inject.spc_perioddata_18.txt
 FILE TYPE:OPEN/CLOSE   UNIT 1098   STATUS:OLD                 
 FORMAT:FORMATTED              ACCESS:SEQUENTIAL          
 ACTION:READ                


end timestep


start timestep kper="18" kstp="2" mode="normal"


end timestep


start timestep kper="18" kstp="3" mode="normal"


end timestep


start timestep kper="18" kstp="4" mode="normal"


end timestep


start timestep kper="18" kstp="5" mode="normal"


end timestep


start timestep kper="18" kstp="6" mode="normal"


end timestep


start timestep kper="18" kstp="7" mode="normal"


end timestep


start timestep kper="18" kstp="8" mode="normal"


end timestep


start timestep kper="18" kstp="9" mode="normal"


end timestep


start timestep kper="18" kstp="10" mode="normal"


end timestep


start timestep kper="18" kstp="11" mode="normal"


end timestep


start timestep kper="18" kstp="12" mode="normal"


end timestep


start timestep kper="18" kstp="13" mode="normal"


end timestep


start timestep kper="18" kstp="14" mode="normal"


 TEMPERATURE WILL BE SAVED ON UNIT 1079 AT END OF TIME STEP   14, STRESS PERIOD   18


  ENERGY BUDGET FOR ENTIRE MODEL AT END OF TIME STEP   14, STRESS PERIOD  18
  ---------------------------------------------------------------------------------------------------

     CUMULATIVE ENERGY      E       RATES FOR THIS TIME STEP      E/T          PACKAGE NAME    
     ------------------                 ------------------------                     ----------------

           IN:                                      IN:
           ---                                      ---
     STORAGE-CELLBLK =       3.4724E+14       STORAGE-CELLBLK =      583866.3712     EST                              
                 WEL =       7.7520E+14                   WEL =     3511200.0000     SSM_WELL_INJECT                  
                 WEL =           0.0000                   WEL =           0.0000     SSM_WELL_EXTRACT                 
                 RIV =       1.5590E+14                   RIV =      575553.4606     SSM_RIV                          
                RCHA =       7.1676E+13                  RCHA =      264614.0081     SSM_RCH                          
                 CHD =       3.9763E+14                   CHD =     1467988.4672     SSM_CHD                          

            TOTAL IN =       1.7476E+15              TOTAL IN =     6403222.3071

          OUT:                                     OUT:
          ----                                     ----
     STORAGE-CELLBLK =       3.8577E+14       STORAGE-CELLBLK =     1356754.4796     EST                              
                 WEL =           0.0000                   WEL =           0.0000     SSM_WELL_INJECT                  
                 WEL =       7.3663E+14                   WEL =     2738198.6919     SSM_WELL_EXTRACT                 
                 RIV =       4.0685E+14                   RIV =     1502007.9703     SSM_RIV                          
                RCHA =           0.0000                  RCHA =           0.0000     SSM_RCH                          
                 CHD =       2.1839E+14                   CHD =      806261.1653     SSM_CHD                          

           TOTAL OUT =       1.7476E+15             TOTAL OUT =     6403222.3071

            IN - OUT =          -8.2500              IN - OUT =      -1.4035E-06

 PERCENT DISCREPANCY =          -0.00     PERCENT DISCREPANCY =          -0.00




         TIME SUMMARY AT END OF TIME STEP   14 IN STRESS PERIOD   18
                    SECONDS     MINUTES      HOURS       DAYS        YEARS
                    -----------------------------------------------------------
   TIME STEP LENGTH 1.31490E+06  21915.      365.25      15.219     4.16667E-02
 STRESS PERIOD TIME 1.84086E+07 3.06810E+05  5113.5      213.06     0.58333    
         TOTAL TIME 2.70869E+08 4.51449E+06  75242.      3135.1      8.5833    


end timestep


start timestep kper="19" kstp="1" mode="normal"


 OUTPUT CONTROL FOR STRESS PERIOD 19 IS REPEATED USING SETTINGS FROM A PREVIOUS STRESS PERIOD.

 OPENED gwe.well_inject.spc_perioddata_19.txt
 FILE TYPE:OPEN/CLOSE   UNIT 1099   STATUS:OLD                 
 FORMAT:FORMATTED              ACCESS:SEQUENTIAL          
 ACTION:READ                


end timestep


start timestep kper="19" kstp="2" mode="normal"


end timestep


start timestep kper="19" kstp="3" mode="normal"


end timestep


start timestep kper="19" kstp="4" mode="normal"


end timestep


start timestep kper="19" kstp="5" mode="normal"


end timestep


start timestep kper="19" kstp="6" mode="normal"


end timestep


start timestep kper="19" kstp="7" mode="normal"


end timestep


start timestep kper="19" kstp="8" mode="normal"


end timestep


start timestep kper="19" kstp="9" mode="normal"


end timestep


[...]
         TOTAL TIME 8.70464E+08 1.45077E+07 2.41796E+05  10075.      27.583    


end timestep


start timestep kper="57" kstp="1" mode="normal"


 OUTPUT CONTROL FOR STRESS PERIOD 57 IS REPEATED USING SETTINGS FROM A PREVIOUS STRESS PERIOD.

 OPENED gwe.well_inject.spc_perioddata_57.txt
 FILE TYPE:OPEN/CLOSE   UNIT 1137   STATUS:OLD                 
 FORMAT:FORMATTED              ACCESS:SEQUENTIAL          
 ACTION:READ                


end timestep


start timestep kper="57" kstp="2" mode="normal"


end timestep


start timestep kper="57" kstp="3" mode="normal"


end timestep


start timestep kper="57" kstp="4" mode="normal"


end timestep


start timestep kper="57" kstp="5" mode="normal"


end timestep


start timestep kper="57" kstp="6" mode="normal"


end timestep


start timestep kper="57" kstp="7" mode="normal"


end timestep


start timestep kper="57" kstp="8" mode="normal"


end timestep


start timestep kper="57" kstp="9" mode="normal"


end timestep


start timestep kper="57" kstp="10" mode="normal"


 TEMPERATURE WILL BE SAVED ON UNIT 1079 AT END OF TIME STEP   10, STRESS PERIOD   57


  ENERGY BUDGET FOR ENTIRE MODEL AT END OF TIME STEP   10, STRESS PERIOD  57
  ---------------------------------------------------------------------------------------------------

     CUMULATIVE ENERGY      E       RATES FOR THIS TIME STEP      E/T          PACKAGE NAME    
     ------------------                 ------------------------                     ----------------

           IN:                                      IN:
           ---                                      ---
     STORAGE-CELLBLK =       1.1905E+15       STORAGE-CELLBLK =     1645296.5494     EST                              
                 WEL =       2.4870E+15                   WEL =     1839200.0000     SSM_WELL_INJECT                  
                 WEL =           0.0000                   WEL =           0.0000     SSM_WELL_EXTRACT                 
                 RIV =       5.0857E+14                   RIV =      575570.4921     SSM_RIV                          
                RCHA =       2.3382E+14                  RCHA =      264614.0081     SSM_RCH                          
                 CHD =       1.2971E+15                   CHD =     1467994.9382     SSM_CHD                          

            TOTAL IN =       5.7170E+15              TOTAL IN =     5792675.9878

          OUT:                                     OUT:
          ----                                     ----
     STORAGE-CELLBLK =       1.2572E+15       STORAGE-CELLBLK =      731611.2272     EST                              
                 WEL =           0.0000                   WEL =           0.0000     SSM_WELL_INJECT                  
                 WEL =       2.4202E+15                   WEL =     2752853.4232     SSM_WELL_EXTRACT                 
                 RIV =       1.3272E+15                   RIV =     1501951.7196     SSM_RIV                          
                RCHA =           0.0000                  RCHA =           0.0000     SSM_RCH                          
                 CHD =       7.1242E+14                   CHD =      806259.6178     SSM_CHD                          

           TOTAL OUT =       5.7170E+15             TOTAL OUT =     5792675.9878

            IN - OUT =         -23.0000              IN - OUT =       8.3819E-09

 PERCENT DISCREPANCY =          -0.00     PERCENT DISCREPANCY =           0.00




         TIME SUMMARY AT END OF TIME STEP   10 IN STRESS PERIOD   57
                    SECONDS     MINUTES      HOURS       DAYS        YEARS
                    -----------------------------------------------------------
   TIME STEP LENGTH 1.31490E+06  21915.      365.25      15.219     4.16667E-02
 STRESS PERIOD TIME 1.31490E+07 2.19150E+05  3652.5      152.19     0.41667    
         TOTAL TIME 8.83613E+08 1.47269E+07 2.45448E+05  10227.      28.000    


end timestep


start timestep kper="58" kstp="1" mode="normal"


 OUTPUT CONTROL FOR STRESS PERIOD 58 IS REPEATED USING SETTINGS FROM A PREVIOUS STRESS PERIOD.

 OPENED gwe.well_inject.spc_perioddata_58.txt
 FILE TYPE:OPEN/CLOSE   UNIT 1138   STATUS:OLD                 
 FORMAT:FORMATTED              ACCESS:SEQUENTIAL          
 ACTION:READ                


end timestep


start timestep kper="58" kstp="2" mode="normal"


end timestep


start timestep kper="58" kstp="3" mode="normal"


end timestep


start timestep kper="58" kstp="4" mode="normal"


end timestep


start timestep kper="58" kstp="5" mode="normal"


end timestep


start timestep kper="58" kstp="6" mode="normal"


end timestep


start timestep kper="58" kstp="7" mode="normal"


end timestep


start timestep kper="58" kstp="8" mode="normal"


end timestep


start timestep kper="58" kstp="9" mode="normal"


end timestep


start timestep kper="58" kstp="10" mode="normal"


end timestep


start timestep kper="58" kstp="11" mode="normal"


end timestep


start timestep kper="58" kstp="12" mode="normal"


end timestep


start timestep kper="58" kstp="13" mode="normal"


end timestep


start timestep kper="58" kstp="14" mode="normal"


 TEMPERATURE WILL BE SAVED ON UNIT 1079 AT END OF TIME STEP   14, STRESS PERIOD   58


  ENERGY BUDGET FOR ENTIRE MODEL AT END OF TIME STEP   14, STRESS PERIOD  58
  ---------------------------------------------------------------------------------------------------

     CUMULATIVE ENERGY      E       RATES FOR THIS TIME STEP      E/T          PACKAGE NAME    
     ------------------                 ------------------------                     ----------------

           IN:                                      IN:
           ---                                      ---
     STORAGE-CELLBLK =       1.2086E+15       STORAGE-CELLBLK =      579567.2395     EST                              
                 WEL =       2.5516E+15                   WEL =     3511200.0000     SSM_WELL_INJECT                  
                 WEL =           0.0000                   WEL =           0.0000     SSM_WELL_EXTRACT                 
                 RIV =       5.1917E+14                   RIV =      575570.7461     SSM_RIV                          
                RCHA =       2.3869E+14                  RCHA =      264614.0081     SSM_RCH                          
                 CHD =       1.3242E+15                   CHD =     1467995.0364     SSM_CHD                          

            TOTAL IN =       5.8422E+15              TOTAL IN =     6398947.0301

          OUT:                                     OUT:
          ----                                     ----
     STORAGE-CELLBLK =       1.2893E+15       STORAGE-CELLBLK =     1342915.8326     EST                              
                 WEL =           0.0000                   WEL =           0.0000     SSM_WELL_INJECT                  
                 WEL =       2.4708E+15                   WEL =     2747820.7063     SSM_WELL_EXTRACT                 
                 RIV =       1.3548E+15                   RIV =     1501950.8955     SSM_RIV                          
                RCHA =           0.0000                  RCHA =           0.0000     SSM_RCH                          
                 CHD =       7.2726E+14                   CHD =      806259.5956     SSM_CHD                          

           TOTAL OUT =       5.8422E+15             TOTAL OUT =     6398947.0301

            IN - OUT =         -25.0000              IN - OUT =      -1.2154E-06

 PERCENT DISCREPANCY =          -0.00     PERCENT DISCREPANCY =          -0.00




         TIME SUMMARY AT END OF TIME STEP   14 IN STRESS PERIOD   58
                    SECONDS     MINUTES      HOURS       DAYS        YEARS
                    -----------------------------------------------------------
   TIME STEP LENGTH 1.31490E+06  21915.      365.25      15.219     4.16667E-02
 STRESS PERIOD TIME 1.84086E+07 3.06810E+05  5113.5      213.06     0.58333    
         TOTAL TIME 9.02021E+08 1.50337E+07 2.50562E+05  10440.      28.583    


end timestep


start timestep kper="59" kstp="1" mode="normal"


 OUTPUT CONTROL FOR STRESS PERIOD 59 IS REPEATED USING SETTINGS FROM A PREVIOUS STRESS PERIOD.

 OPENED gwe.well_inject.spc_perioddata_59.txt
 FILE TYPE:OPEN/CLOSE   UNIT 1139   STATUS:OLD                 
 FORMAT:FORMATTED              ACCESS:SEQUENTIAL          
 ACTION:READ                


end timestep


start timestep kper="59" kstp="2" mode="normal"


end timestep


start timestep kper="59" kstp="3" mode="normal"


end timestep


start timestep kper="59" kstp="4" mode="normal"


end timestep


start timestep kper="59" kstp="5" mode="normal"


end timestep


start timestep kper="59" kstp="6" mode="normal"


end timestep


start timestep kper="59" kstp="7" mode="normal"


end timestep


start timestep kper="59" kstp="8" mode="normal"


end timestep


start timestep kper="59" kstp="9" mode="normal"


end timestep


start timestep kper="59" kstp="10" mode="normal"


 TEMPERATURE WILL BE SAVED ON UNIT 1079 AT END OF TIME STEP   10, STRESS PERIOD   59


  ENERGY BUDGET FOR ENTIRE MODEL AT END OF TIME STEP   10, STRESS PERIOD  59
  ---------------------------------------------------------------------------------------------------

     CUMULATIVE ENERGY      E       RATES FOR THIS TIME STEP      E/T          PACKAGE NAME    
     ------------------                 ------------------------                     ----------------

           IN:                                      IN:
           ---                                      ---
     STORAGE-CELLBLK =       1.2336E+15       STORAGE-CELLBLK =     1645297.0202     EST                              
                 WEL =       2.5758E+15                   WEL =     1839200.0000     SSM_WELL_INJECT                  
                 WEL =           0.0000                   WEL =           0.0000     SSM_WELL_EXTRACT                 
                 RIV =       5.2674E+14                   RIV =      575570.9228     SSM_RIV                          
                RCHA =       2.4217E+14                  RCHA =      264614.0081     SSM_RCH                          
                 CHD =       1.3435E+15                   CHD =     1467995.1042     SSM_CHD                          

            TOTAL IN =       5.9217E+15              TOTAL IN =     5792677.0553

          OUT:                                     OUT:
          ----                                     ----
     STORAGE-CELLBLK =       1.3022E+15       STORAGE-CELLBLK =      731485.7628     EST                              
                 WEL =           0.0000                   WEL =           0.0000     SSM_WELL_INJECT                  
                 WEL =       2.5070E+15                   WEL =     2752981.3845     SSM_WELL_EXTRACT                 
                 RIV =       1.3746E+15                   RIV =     1501950.3278     SSM_RIV                          
                RCHA =           0.0000                  RCHA =           0.0000     SSM_RCH                          
                 CHD =       7.3787E+14                   CHD =      806259.5802     SSM_CHD                          

           TOTAL OUT =       5.9217E+15             TOTAL OUT =     5792677.0553

            IN - OUT =         -23.0000              IN - OUT =       1.9558E-08

 PERCENT DISCREPANCY =          -0.00     PERCENT DISCREPANCY =           0.00




         TIME SUMMARY AT END OF TIME STEP   10 IN STRESS PERIOD   59
                    SECONDS     MINUTES      HOURS       DAYS        YEARS
                    -----------------------------------------------------------
   TIME STEP LENGTH 1.31490E+06  21915.      365.25      15.219     4.16667E-02
 STRESS PERIOD TIME 1.31490E+07 2.19150E+05  3652.5      152.19     0.41667    
         TOTAL TIME 9.15170E+08 1.52528E+07 2.54214E+05  10592.      29.000    


end timestep


start timestep kper="60" kstp="1" mode="normal"


 OUTPUT CONTROL FOR STRESS PERIOD 60 IS REPEATED USING SETTINGS FROM A PREVIOUS STRESS PERIOD.

 OPENED gwe.well_inject.spc_perioddata_60.txt
 FILE TYPE:OPEN/CLOSE   UNIT 1140   STATUS:OLD                 
 FORMAT:FORMATTED              ACCESS:SEQUENTIAL          
 ACTION:READ                


end timestep


start timestep kper="60" kstp="2" mode="normal"


end timestep


start timestep kper="60" kstp="3" mode="normal"


end timestep


start timestep kper="60" kstp="4" mode="normal"


end timestep


start timestep kper="60" kstp="5" mode="normal"


end timestep


start timestep kper="60" kstp="6" mode="normal"


end timestep


start timestep kper="60" kstp="7" mode="normal"


end timestep


start timestep kper="60" kstp="8" mode="normal"


end timestep


start timestep kper="60" kstp="9" mode="normal"


end timestep


start timestep kper="60" kstp="10" mode="normal"


end timestep


start timestep kper="60" kstp="11" mode="normal"


end timestep


start timestep kper="60" kstp="12" mode="normal"


end timestep


start timestep kper="60" kstp="13" mode="normal"


end timestep


start timestep kper="60" kstp="14" mode="normal"


 TEMPERATURE WILL BE SAVED ON UNIT 1079 AT END OF TIME STEP   14, STRESS PERIOD   60


  ENERGY BUDGET FOR ENTIRE MODEL AT END OF TIME STEP   14, STRESS PERIOD  60
  ---------------------------------------------------------------------------------------------------

     CUMULATIVE ENERGY      E       RATES FOR THIS TIME STEP      E/T          PACKAGE NAME    
     ------------------                 ------------------------                     ----------------

           IN:                                      IN:
           ---                                      ---
     STORAGE-CELLBLK =       1.2517E+15       STORAGE-CELLBLK =      579567.5721     EST                              
                 WEL =       2.6404E+15                   WEL =     3511200.0000     SSM_WELL_INJECT                  
                 WEL =           0.0000                   WEL =           0.0000     SSM_WELL_EXTRACT                 
                 RIV =       5.3733E+14                   RIV =      575571.1595     SSM_RIV                          
                RCHA =       2.4704E+14                  RCHA =      264614.0081     SSM_RCH                          
                 CHD =       1.3705E+15                   CHD =     1467995.1962     SSM_CHD                          

            TOTAL IN =       6.0470E+15              TOTAL IN =     6398947.9359

          OUT:                                     OUT:
          ----                                     ----
     STORAGE-CELLBLK =       1.3344E+15       STORAGE-CELLBLK =     1342796.3125     EST                              
                 WEL =           0.0000                   WEL =           0.0000     SSM_WELL_INJECT                  
                 WEL =       2.5577E+15                   WEL =     2747942.5076     SSM_WELL_EXTRACT                 
                 RIV =       1.4022E+15                   RIV =     1501949.5563     SSM_RIV                          
                RCHA =           0.0000                  RCHA =           0.0000     SSM_RCH                          
                 CHD =       7.5271E+14                   CHD =      806259.5594     SSM_CHD                          

           TOTAL OUT =       6.0470E+15             TOTAL OUT =     6398947.9359

            IN - OUT =         -25.0000              IN - OUT =      -1.2554E-06

 PERCENT DISCREPANCY =          -0.00     PERCENT DISCREPANCY =          -0.00




         TIME SUMMARY AT END OF TIME STEP   14 IN STRESS PERIOD   60
                    SECONDS     MINUTES      HOURS       DAYS        YEARS
                    -----------------------------------------------------------
   TIME STEP LENGTH 1.31490E+06  21915.      365.25      15.219     4.16667E-02
 STRESS PERIOD TIME 1.84086E+07 3.06810E+05  5113.5      213.06     0.58333    
         TOTAL TIME 9.33579E+08 1.55597E+07 2.59328E+05  10805.      29.583    


end timestep


start timestep kper="61" kstp="1" mode="normal"


 OUTPUT CONTROL FOR STRESS PERIOD 61 IS REPEATED USING SETTINGS FROM A PREVIOUS STRESS PERIOD.

 OPENED gwe.well_inject.spc_perioddata_61.txt
 FILE TYPE:OPEN/CLOSE   UNIT 1141   STATUS:OLD                 
 FORMAT:FORMATTED              ACCESS:SEQUENTIAL          
 ACTION:READ                


end timestep


start timestep kper="61" kstp="2" mode="normal"


end timestep


start timestep kper="61" kstp="3" mode="normal"


end timestep


start timestep kper="61" kstp="4" mode="normal"


end timestep


start timestep kper="61" kstp="5" mode="normal"


end timestep


start timestep kper="61" kstp="6" mode="normal"


end timestep


start timestep kper="61" kstp="7" mode="normal"


end timestep


start timestep kper="61" kstp="8" mode="normal"


end timestep


start timestep kper="61" kstp="9" mode="normal"


end timestep


start timestep kper="61" kstp="10" mode="normal"


 TEMPERATURE WILL BE SAVED ON UNIT 1079 AT END OF TIME STEP   10, STRESS PERIOD   61


  ENERGY BUDGET FOR ENTIRE MODEL AT END OF TIME STEP   10, STRESS PERIOD  61
  ---------------------------------------------------------------------------------------------------

     CUMULATIVE ENERGY      E       RATES FOR THIS TIME STEP      E/T          PACKAGE NAME    
     ------------------                 ------------------------                     ----------------

           IN:                                      IN:
           ---                                      ---
     STORAGE-CELLBLK =       1.2766E+15       STORAGE-CELLBLK =     1645297.4531     EST                              
                 WEL =       2.6646E+15                   WEL =     1839200.0000     SSM_WELL_INJECT                  
                 WEL =           0.0000                   WEL =           0.0000     SSM_WELL_EXTRACT                 
                 RIV =       5.4490E+14                   RIV =      575571.3252     SSM_RIV                          
                RCHA =       2.5052E+14                  RCHA =      264614.0081     SSM_RCH                          
                 CHD =       1.3898E+15                   CHD =     1467995.2598     SSM_CHD                          

            TOTAL IN =       6.1264E+15              TOTAL IN =     5792678.0463

          OUT:                                     OUT:
          ----                                     ----
     STORAGE-CELLBLK =       1.3473E+15       STORAGE-CELLBLK =      731370.4760     EST                              
                 WEL =           0.0000                   WEL =           0.0000     SSM_WELL_INJECT                  
                 WEL =       2.5938E+15                   WEL =     2753099.0030     SSM_WELL_EXTRACT                 
                 RIV =       1.4220E+15                   RIV =     1501949.0222     SSM_RIV                          
                RCHA =           0.0000                  RCHA =           0.0000     SSM_RCH                          
                 CHD =       7.6331E+14                   CHD =      806259.5451     SSM_CHD                          

           TOTAL OUT =       6.1264E+15             TOTAL OUT =     5792678.0463

            IN - OUT =         -25.0000              IN - OUT =       8.1025E-08

 PERCENT DISCREPANCY =          -0.00     PERCENT DISCREPANCY =           0.00




         TIME SUMMARY AT END OF TIME STEP   10 IN STRESS PERIOD   61
                    SECONDS     MINUTES      HOURS       DAYS        YEARS
                    -----------------------------------------------------------
   TIME STEP LENGTH 1.31490E+06  21915.      365.25      15.219     4.16667E-02
 STRESS PERIOD TIME 1.31490E+07 2.19150E+05  3652.5      152.19     0.41667    
         TOTAL TIME 9.46728E+08 1.57788E+07 2.62980E+05  10958.      30.000    


end timestep

