                                   MODFLOW 6
                U.S. GEOLOGICAL SURVEY MODULAR HYDROLOGIC MODEL
                          GROUNDWATER FLOW MODEL (GWF)
                  VERSION 6.7.0.dev3 (preliminary) 10/16/2025
                               ***DEVELOP MODE***

   MODFLOW 6 compiled Oct 16 2025 14:05:53 with Intel(R) Fortran Intel(R) 64
   Compiler Classic for applications running on Intel(R) 64, Version 2021.7.0
                             Build 20220726_000000

This software is preliminary or provisional and is subject to 
revision. It is being provided to meet the need for timely best 
science. The software has not received final approval by the U.S. 
Geological Survey (USGS). No warranty, expressed or implied, is made 
by the USGS or the U.S. Government as to the functionality of the 
software and related material nor shall the fact of release 
constitute any such warranty. The software is provided on the 
condition that neither the USGS nor the U.S. Government shall be held 
liable for any damages resulting from the authorized or unauthorized 
use of the software.


As a work of the United States Government, this USGS product is 
in the public domain within the United States. You can copy, 
modify, distribute, and perform the work, even for commercial 
purposes, all without asking permission. Additionally, USGS 
waives copyright and related rights in the work worldwide 
through CC0 1.0 Universal Public Domain Dedication 
(https://creativecommons.org/publicdomain/zero/1.0/).

The following GNU Lesser General Public License (LGPL) libraries
are used in this USGS product:

    SPARSKIT version 2.0
      ilut, luson, and qsplit 
      (https://www-users.cse.umn.edu/~saad/software/SPARSKIT/)

    RCM - Reverse Cuthill McKee Ordering
      (https://people.math.sc.edu/Burkardt/f_src/rcm/rcm.html)

    BLAS - Basic Linear Algebra Subprograms Level 1
      (https://people.math.sc.edu/Burkardt/f_src/blas1_d/blas1_d.html)

    SPARSEKIT - Sparse Matrix Utility Package
      amux, dperm, dvperm, rperm, and cperm
      (https://people.sc.fsu.edu/~jburkardt/f77_src/sparsekit/sparsekit.html)

The following BSD-3 License libraries are used in this USGS product:

    Modern Fortran DAG Library
      Copyright (c) 2018, Jacob Williams
      All rights reserved.
      (https://github.com/jacobwilliams/daglib)

MODFLOW 6 compiler options: -Isrc/libmf6_external.a.p -Isrc/libmf6core.a.p
-Isrc -I../src -warn general -warn truncated_source -stand=f18 -O2 -fpe0
-no-heap-arrays -traceback -diag-disable:7416 -diag-disable:7025
-diag-disable:5268 -module src/libmf6core.a.p
-gen-dep=src/libmf6core.a.p/Utilities_compilerversion.F90.o
-gen-depformat=make -o src/libmf6core.a.p/Utilities_compilerversion.F90.o -c

System command used to initiate simulation:
./mf6

MODFLOW was compiled using uniform precision.

Real Variables
  KIND: 8
  TINY (smallest non-zero value):    2.225074-308
  HUGE (largest value):    1.797693+308
  PRECISION: 15
  SIZE IN BITS: 64

Integer Variables
  KIND: 4
  HUGE (largest value): 2147483647
  SIZE IN BITS: 32

Long Integer Variables
  KIND: 8
  HUGE (largest value): 9223372036854775807
  SIZE IN BITS: 64

Logical Variables
  KIND: 4
  SIZE IN BITS: 32
 
 NAMEFILE OPTIONS:
 END NAMEFILE OPTIONS:

 DISV -- VERTEX GRID DISCRETIZATION PACKAGE, VERSION 1 : 12/23/2015 - INPUT READ FROM MEMPATH: __INPUT__/GWF/DISV                                


 Setting Discretization Options
 End Setting Discretization Options

 Setting Discretization Dimensions
    NLAY = 1
    NCPL = 13417
    NVERT = 26966
 End Setting Discretization Dimensions

 Setting Discretization Griddata
    TOP set from input file
    BOTM set from input file
 End Setting Discretization Griddata

 Discretization Vertex data loaded
 Discretization Cell2d data loaded

 NPF -- NODE PROPERTY FLOW PACKAGE, VERSION 1, 3/30/2015 INPUT READ FROM MEMPATH: __INPUT__/GWF/NPF                                 


 IC -- Initial Conditions Package, Version 8, 3/28/2015 input read from mempath: __INPUT__/GWF/IC                                  


 Setting NPF Options
    Cell-by-cell flow information will be saved to binary file whenever ICBCFL is not zero.
    Specific discharge will be calculated at cell centers and written to DATA-SPDIS in budget file when requested.
    Saturation will be written to DATA-SAT in budget file when requested.
 End Setting NPF Options

 Setting NPF Griddata
    ICELLTYPE set from input file
    K set from input file
    K33 not provided.  Setting K33 = K.
    K22 not provided.  Setting K22 = K.
 End Setting NPF Griddata


 WEL -- WEL PACKAGE, VERSION 8, 2/22/2014 INPUT READ FROM MEMPATH: __INPUT__/GWF/WELL_INJECT                         

 PROCESSING WEL BASE OPTIONS
    FLOWS WILL BE SAVED TO BUDGET FILE SPECIFIED IN OUTPUT CONTROL
 END OF WEL BASE OPTIONS

 PROCESSING WEL OPTIONS
 END OF WEL OPTIONS

 PROCESSING WEL BASE DIMENSIONS
    MAXBOUND =       4
 END OF WEL BASE DIMENSIONS

 WEL -- WEL PACKAGE, VERSION 8, 2/22/2014 INPUT READ FROM MEMPATH: __INPUT__/GWF/WELL_EXTRACT                        

 PROCESSING WEL BASE OPTIONS
    FLOWS WILL BE SAVED TO BUDGET FILE SPECIFIED IN OUTPUT CONTROL
 END OF WEL BASE OPTIONS

 PROCESSING WEL OPTIONS
 END OF WEL OPTIONS

 PROCESSING WEL BASE DIMENSIONS
    MAXBOUND =       4
 END OF WEL BASE DIMENSIONS

 RIV -- RIV PACKAGE, VERSION 8, 2/22/2014 INPUT READ FROM MEMPATH: __INPUT__/GWF/RIV                                 

 PROCESSING RIV BASE OPTIONS
    FLOWS WILL BE SAVED TO BUDGET FILE SPECIFIED IN OUTPUT CONTROL
    RIV BOUNDARIES HAVE NAMES IN LAST COLUMN.
 END OF RIV BASE OPTIONS

 OPENED gwf.riv.obs
 FILE TYPE:OBS   UNIT 1054   STATUS:OLD                 
 FORMAT:FORMATTED              ACCESS:SEQUENTIAL          
 ACTION:READ                


 PROCESSING RIV OPTIONS
 END OF RIV OPTIONS

 PROCESSING RIV BASE DIMENSIONS
    MAXBOUND =      80
 END OF RIV BASE DIMENSIONS

 RCH -- RCH PACKAGE, VERSION 8, 2/22/2014 INPUT READ FROM MEMPATH: __INPUT__/GWF/RCH                                 

 PROCESSING RCH BASE OPTIONS
    PACKAGE INPUT WILL BE READ AS LAYER ARRAYS.
    FLOWS WILL BE SAVED TO BUDGET FILE SPECIFIED IN OUTPUT CONTROL
 END OF RCH BASE OPTIONS

 PROCESSING RCHA OPTIONS
 END OF RCHA OPTIONS

 CHD -- CHD PACKAGE, VERSION 8, 2/22/2014 INPUT READ FROM MEMPATH: __INPUT__/GWF/CHD                                 

 PROCESSING CHD BASE OPTIONS
    FLOWS WILL BE SAVED TO BUDGET FILE SPECIFIED IN OUTPUT CONTROL
    CHD BOUNDARIES HAVE NAMES IN LAST COLUMN.
 END OF CHD BASE OPTIONS

 PROCESSING CHD BASE DIMENSIONS
    MAXBOUND =      63
 END OF CHD BASE DIMENSIONS
    STRT set from input file

The observation utility is active for "GWF"
 # File generated by Flopy version 3.10.0.dev5 on 10/29/2025 at 13:54:47.

Processing observation options:

Text output number of digits of precision set to: 10


 OPENED gwf.obs_continuous_gwf_heads1.csv.txt
 FILE TYPE:OPEN/CLOSE   UNIT 1059   STATUS:OLD                 
 FORMAT:FORMATTED              ACCESS:SEQUENTIAL          
 ACTION:READ                


 OPENED gwf.obs_continuous_gwf_heads2.csv.txt
 FILE TYPE:OPEN/CLOSE   UNIT 1061   STATUS:OLD                 
 FORMAT:FORMATTED              ACCESS:SEQUENTIAL          
 ACTION:READ                


 OPENED gwf.obs_continuous_gwf_heads_ext.csv.txt
 FILE TYPE:OPEN/CLOSE   UNIT 1063   STATUS:OLD                 
 FORMAT:FORMATTED              ACCESS:SEQUENTIAL          
 ACTION:READ                


 OPENED gwf.obs_continuous_gwf_heads_inj.csv.txt
 FILE TYPE:OPEN/CLOSE   UNIT 1065   STATUS:OLD                 
 FORMAT:FORMATTED              ACCESS:SEQUENTIAL          
 ACTION:READ                

    BINARY GRID INFORMATION WILL BE WRITTEN TO:
      UNIT NUMBER: 1067
      FILE NAME: ./gwf.disv.grb

 OPENED ./gwf.disv.grb
 FILE TYPE:DATA(BINARY)   UNIT 1067   STATUS:REPLACE             
 FORMAT:UNFORMATTED            ACCESS:STREAM              
 ACTION:READWRITE           

      THE LAST TIME STEP WILL BE PRINTED
      THE LAST TIME STEP WILL BE PRINTED
 # File generated by Flopy version 3.10.0.dev5 on 10/29/2025 at 13:54:47.

 PROCESSING OC OPTIONS

    BUDGET INFORMATION WILL BE WRITTEN TO:
      UNIT NUMBER: 1068
      FILE NAME: gwf.bud

 OPENED gwf.bud
 FILE TYPE:DATA(BINARY)   UNIT 1068   STATUS:REPLACE             
 FORMAT:UNFORMATTED            ACCESS:STREAM              
 ACTION:READWRITE           

    HEAD INFORMATION WILL BE WRITTEN TO:
      UNIT NUMBER: 1069
      FILE NAME: gwf.hds

 OPENED gwf.hds
 FILE TYPE:DATA(BINARY)   UNIT 1069   STATUS:REPLACE             
 FORMAT:UNFORMATTED            ACCESS:STREAM              
 ACTION:READWRITE           

 END OF OC OPTIONS

The observation utility is active for "RIV"

Processing observation options:


 # obsname   type ID

start timestep kper="1" kstp="1" mode="normal"


 BEGIN READING OUTPUT CONTROL FOR STRESS PERIOD 1
      THE LAST TIME STEP WILL BE SAVED
      THE LAST TIME STEP WILL BE SAVED

 END READING OUTPUT CONTROL FOR STRESS PERIOD 1
 UBDSV1 SAVING     FLOW-JA-FACE ON UNIT   1068 AT TIME STEP      1, STRESS PERIOD      1
 UBDSV06 SAVING       DATA-SPDIS IN MODEL GWF              PACKAGE NPF             CONNECTED TO MODEL GWF              PACKAGE NPF              ON UNIT   1068 AT TIME STEP      1, STRESS PERIOD      1
 UBDSV06 SAVING         DATA-SAT IN MODEL GWF              PACKAGE NPF             CONNECTED TO MODEL GWF              PACKAGE NPF              ON UNIT   1068 AT TIME STEP      1, STRESS PERIOD      1
 UBDSV06 SAVING              WEL IN MODEL GWF              PACKAGE GWF             CONNECTED TO MODEL GWF              PACKAGE WELL_INJECT      ON UNIT   1068 AT TIME STEP      1, STRESS PERIOD      1
 UBDSV06 SAVING              WEL IN MODEL GWF              PACKAGE GWF             CONNECTED TO MODEL GWF              PACKAGE WELL_EXTRACT     ON UNIT   1068 AT TIME STEP      1, STRESS PERIOD      1
 UBDSV06 SAVING              RIV IN MODEL GWF              PACKAGE GWF             CONNECTED TO MODEL GWF              PACKAGE RIV              ON UNIT   1068 AT TIME STEP      1, STRESS PERIOD      1
 UBDSV06 SAVING             RCHA IN MODEL GWF              PACKAGE GWF             CONNECTED TO MODEL GWF              PACKAGE RCH              ON UNIT   1068 AT TIME STEP      1, STRESS PERIOD      1
 UBDSV06 SAVING              CHD IN MODEL GWF              PACKAGE GWF             CONNECTED TO MODEL GWF              PACKAGE CHD              ON UNIT   1068 AT TIME STEP      1, STRESS PERIOD      1

 HEAD WILL BE SAVED ON UNIT 1069 AT END OF TIME STEP    1, STRESS PERIOD    1


  VOLUME BUDGET FOR ENTIRE MODEL AT END OF TIME STEP    1, STRESS PERIOD   1
  ---------------------------------------------------------------------------------------------------

     CUMULATIVE VOLUME      L**3       RATES FOR THIS TIME STEP      L**3/T          PACKAGE NAME    
     ------------------                 ------------------------                     ----------------

           IN:                                      IN:
           ---                                      ---
                 WEL =           0.0000                   WEL =           0.0000     WELL_INJECT                      
                 WEL =           0.0000                   WEL =           0.0000     WELL_EXTRACT                     
                 RIV =       8.8972E-03                   RIV =       8.8972E-03     RIV                              
                RCHA =       3.9565E-03                  RCHA =       3.9565E-03     RCH                              
                 CHD =       1.4976E-02                   CHD =       1.4976E-02     CHD                              

            TOTAL IN =       2.7829E-02              TOTAL IN =       2.7829E-02

          OUT:                                     OUT:
          ----                                     ----
                 WEL =           0.0000                   WEL =           0.0000     WELL_INJECT                      
                 WEL =           0.0000                   WEL =           0.0000     WELL_EXTRACT                     
                 RIV =       1.2701E-02                   RIV =       1.2701E-02     RIV                              
                RCHA =           0.0000                  RCHA =           0.0000     RCH                              
                 CHD =       1.5123E-02                   CHD =       1.5123E-02     CHD                              

           TOTAL OUT =       2.7823E-02             TOTAL OUT =       2.7823E-02

            IN - OUT =       6.0808E-06              IN - OUT =       6.0808E-06

 PERCENT DISCREPANCY =           0.02     PERCENT DISCREPANCY =           0.02




         TIME SUMMARY AT END OF TIME STEP    1 IN STRESS PERIOD    1
                    SECONDS     MINUTES      HOURS       DAYS        YEARS
                    -----------------------------------------------------------
   TIME STEP LENGTH  1.0000     1.66667E-02 2.77778E-04 1.15741E-05 3.16881E-08
 STRESS PERIOD TIME  1.0000     1.66667E-02 2.77778E-04 1.15741E-05 3.16881E-08
         TOTAL TIME  1.0000     1.66667E-02 2.77778E-04 1.15741E-05 3.16881E-08


end timestep


start timestep kper="2" kstp="1" mode="normal"


 BEGIN READING OUTPUT CONTROL FOR STRESS PERIOD 2
      THE LAST TIME STEP WILL BE SAVED
      THE LAST TIME STEP WILL BE SAVED

 END READING OUTPUT CONTROL FOR STRESS PERIOD 2

end timestep


start timestep kper="2" kstp="2" mode="normal"


end timestep


start timestep kper="2" kstp="3" mode="normal"


end timestep


start timestep kper="2" kstp="4" mode="normal"


end timestep


start timestep kper="2" kstp="5" mode="normal"


end timestep


start timestep kper="2" kstp="6" mode="normal"


end timestep


start timestep kper="2" kstp="7" mode="normal"


end timestep


start timestep kper="2" kstp="8" mode="normal"


end timestep


start timestep kper="2" kstp="9" mode="normal"


end timestep


start timestep kper="2" kstp="10" mode="normal"


end timestep


start timestep kper="2" kstp="11" mode="normal"


end timestep


start timestep kper="2" kstp="12" mode="normal"


end timestep


start timestep kper="2" kstp="13" mode="normal"


end timestep


start timestep kper="2" kstp="14" mode="normal"

 UBDSV1 SAVING     FLOW-JA-FACE ON UNIT   1068 AT TIME STEP     14, STRESS PERIOD      2
 UBDSV06 SAVING       DATA-SPDIS IN MODEL GWF              PACKAGE NPF             CONNECTED TO MODEL GWF              PACKAGE NPF              ON UNIT   1068 AT TIME STEP     14, STRESS PERIOD      2
 UBDSV06 SAVING         DATA-SAT IN MODEL GWF              PACKAGE NPF             CONNECTED TO MODEL GWF              PACKAGE NPF              ON UNIT   1068 AT TIME STEP     14, STRESS PERIOD      2
 UBDSV06 SAVING              WEL IN MODEL GWF              PACKAGE GWF             CONNECTED TO MODEL GWF              PACKAGE WELL_INJECT      ON UNIT   1068 AT TIME STEP     14, STRESS PERIOD      2
 UBDSV06 SAVING              WEL IN MODEL GWF              PACKAGE GWF             CONNECTED TO MODEL GWF              PACKAGE WELL_EXTRACT     ON UNIT   1068 AT TIME STEP     14, STRESS PERIOD      2
 UBDSV06 SAVING              RIV IN MODEL GWF              PACKAGE GWF             CONNECTED TO MODEL GWF              PACKAGE RIV              ON UNIT   1068 AT TIME STEP     14, STRESS PERIOD      2
 UBDSV06 SAVING             RCHA IN MODEL GWF              PACKAGE GWF             CONNECTED TO MODEL GWF              PACKAGE RCH              ON UNIT   1068 AT TIME STEP     14, STRESS PERIOD      2
 UBDSV06 SAVING              CHD IN MODEL GWF              PACKAGE GWF             CONNECTED TO MODEL GWF              PACKAGE CHD              ON UNIT   1068 AT TIME STEP     14, STRESS PERIOD      2

 HEAD WILL BE SAVED ON UNIT 1069 AT END OF TIME STEP   14, STRESS PERIOD    2


  VOLUME BUDGET FOR ENTIRE MODEL AT END OF TIME STEP   14, STRESS PERIOD   2
  ---------------------------------------------------------------------------------------------------

     CUMULATIVE VOLUME      L**3       RATES FOR THIS TIME STEP      L**3/T          PACKAGE NAME    
     ------------------                 ------------------------                     ----------------

           IN:                                      IN:
           ---                                      ---
                 WEL =      736344.0000                   WEL =       4.0000E-02     WELL_INJECT                      
                 WEL =           0.0000                   WEL =           0.0000     WELL_EXTRACT                     
                 RIV =      233789.8617                   RIV =       1.2702E-02     RIV                              
                RCHA =       72834.5349                  RCHA =       3.9565E-03     RCH                              
                 CHD =      308268.0588                   CHD =       1.6747E-02     CHD                              

            TOTAL IN =     1351236.4554              TOTAL IN =       7.3406E-02

          OUT:                                     OUT:
          ----                                     ----
                 WEL =           0.0000                   WEL =           0.0000     WELL_INJECT                      
                 WEL =      736344.0000                   WEL =       4.0000E-02     WELL_EXTRACT                     
                 RIV =      327721.6964                   RIV =       1.7801E-02     RIV                              
                RCHA =           0.0000                  RCHA =           0.0000     RCH                              
                 CHD =      287442.1111                   CHD =       1.5614E-02     CHD                              

           TOTAL OUT =     1351507.8075             TOTAL OUT =       7.3415E-02

            IN - OUT =        -271.3521              IN - OUT =      -9.3031E-06

 PERCENT DISCREPANCY =          -0.02     PERCENT DISCREPANCY =          -0.01




         TIME SUMMARY AT END OF TIME STEP   14 IN STRESS PERIOD    2
                    SECONDS     MINUTES      HOURS       DAYS        YEARS
                    -----------------------------------------------------------
   TIME STEP LENGTH 1.31490E+06  21915.      365.25      15.219     4.16667E-02
 STRESS PERIOD TIME 1.84086E+07 3.06810E+05  5113.5      213.06     0.58333    
         TOTAL TIME 1.84086E+07 3.06810E+05  5113.5      213.06     0.58333    


end timestep


start timestep kper="3" kstp="1" mode="normal"


 BEGIN READING OUTPUT CONTROL FOR STRESS PERIOD 3

 END READING OUTPUT CONTROL FOR STRESS PERIOD 3

end timestep


start timestep kper="3" kstp="2" mode="normal"


end timestep


start timestep kper="3" kstp="3" mode="normal"


end timestep


start timestep kper="3" kstp="4" mode="normal"


end timestep


start timestep kper="3" kstp="5" mode="normal"


end timestep


start timestep kper="3" kstp="6" mode="normal"


end timestep


start timestep kper="3" kstp="7" mode="normal"


end timestep


start timestep kper="3" kstp="8" mode="normal"


end timestep


start timestep kper="3" kstp="9" mode="normal"


end timestep


start timestep kper="3" kstp="10" mode="normal"



  VOLUME BUDGET FOR ENTIRE MODEL AT END OF TIME STEP   10, STRESS PERIOD   3
  ---------------------------------------------------------------------------------------------------

     CUMULATIVE VOLUME      L**3       RATES FOR THIS TIME STEP      L**3/T          PACKAGE NAME    
     ------------------                 ------------------------                     ----------------

           IN:                                      IN:
           ---                                      ---
                 WEL =     1262304.0000                   WEL =       4.0000E-02     WELL_INJECT                      
                 WEL =           0.0000                   WEL =           0.0000     WELL_EXTRACT                     
                 RIV =      400814.8733                   RIV =       1.2702E-02     RIV                              
                RCHA =      124859.1999                  RCHA =       3.9565E-03     RCH                              
                 CHD =      528468.1335                   CHD =       1.6747E-02     CHD                              

            TOTAL IN =     2316446.2067              TOTAL IN =       7.3406E-02

          OUT:                                     OUT:
          ----                                     ----
                 WEL =           0.0000                   WEL =           0.0000     WELL_INJECT                      
                 WEL =     1262304.0000                   WEL =       4.0000E-02     WELL_EXTRACT                     
                 RIV =      561780.5710                   RIV =       1.7800E-02     RIV                              
                RCHA =           0.0000                  RCHA =           0.0000     RCH                              
                 CHD =      492754.5574                   CHD =       1.5614E-02     CHD                              

           TOTAL OUT =     2316839.1284             TOTAL OUT =       7.3415E-02

            IN - OUT =        -392.9218              IN - OUT =      -9.2020E-06

 PERCENT DISCREPANCY =          -0.02     PERCENT DISCREPANCY =          -0.01




         TIME SUMMARY AT END OF TIME STEP   10 IN STRESS PERIOD    3
                    SECONDS     MINUTES      HOURS       DAYS        YEARS
                    -----------------------------------------------------------
   TIME STEP LENGTH 1.31490E+06  21915.      365.25      15.219     4.16667E-02
 STRESS PERIOD TIME 1.31490E+07 2.19150E+05  3652.5      152.19     0.41667    
         TOTAL TIME 3.15576E+07 5.25960E+05  8766.0      365.25      1.0000    


end timestep


start timestep kper="4" kstp="1" mode="normal"


 END OF FILE DETECTED IN OUTPUT CONTROL.
 CURRENT OUTPUT CONTROL SETTINGS WILL BE 
 REPEATED UNTIL THE END OF THE SIMULATION.

 OUTPUT CONTROL FOR STRESS PERIOD 4 IS REPEATED USING SETTINGS FROM A PREVIOUS STRESS PERIOD.

end timestep


start timestep kper="4" kstp="2" mode="normal"


end timestep


start timestep kper="4" kstp="3" mode="normal"


end timestep


start timestep kper="4" kstp="4" mode="normal"


end timestep


start timestep kper="4" kstp="5" mode="normal"


end timestep


start timestep kper="4" kstp="6" mode="normal"


end timestep


start timestep kper="4" kstp="7" mode="normal"


end timestep


start timestep kper="4" kstp="8" mode="normal"


end timestep


start timestep kper="4" kstp="9" mode="normal"


end timestep


start timestep kper="4" kstp="10" mode="normal"


end timestep


start timestep kper="4" kstp="11" mode="normal"


end timestep


start timestep kper="4" kstp="12" mode="normal"


end timestep


start timestep kper="4" kstp="13" mode="normal"


end timestep


start timestep kper="4" kstp="14" mode="normal"



  VOLUME BUDGET FOR ENTIRE MODEL AT END OF TIME STEP   14, STRESS PERIOD   4
  ---------------------------------------------------------------------------------------------------

     CUMULATIVE VOLUME      L**3       RATES FOR THIS TIME STEP      L**3/T          PACKAGE NAME    
     ------------------                 ------------------------                     ----------------

           IN:                                      IN:
           ---                                      ---
                 WEL =     1998648.0000                   WEL =       4.0000E-02     WELL_INJECT                      
                 WEL =           0.0000                   WEL =           0.0000     WELL_EXTRACT                     
                 RIV =      634650.2490                   RIV =       1.2703E-02     RIV                              
                RCHA =      197693.7308                  RCHA =       3.9565E-03     RCH                              
                 CHD =      836748.8004                   CHD =       1.6747E-02     CHD                              

            TOTAL IN =     3667740.7802              TOTAL IN =       7.3406E-02

          OUT:                                     OUT:
          ----                                     ----
                 WEL =           0.0000                   WEL =           0.0000     WELL_INJECT                      
                 WEL =     1998648.0000                   WEL =       4.0000E-02     WELL_EXTRACT                     
                 RIV =      889462.0216                   RIV =       1.7800E-02     RIV                              
                RCHA =           0.0000                  RCHA =           0.0000     RCH                              
                 CHD =      780191.5673                   CHD =       1.5614E-02     CHD                              

           TOTAL OUT =     3668301.5889             TOTAL OUT =       7.3415E-02

            IN - OUT =        -560.8087              IN - OUT =      -9.0471E-06

 PERCENT DISCREPANCY =          -0.02     PERCENT DISCREPANCY =          -0.01




         TIME SUMMARY AT END OF TIME STEP   14 IN STRESS PERIOD    4
                    SECONDS     MINUTES      HOURS       DAYS        YEARS
                    -----------------------------------------------------------
   TIME STEP LENGTH 1.31490E+06  21915.      365.25      15.219     4.16667E-02
 STRESS PERIOD TIME 1.84086E+07 3.06810E+05  5113.5      213.06     0.58333    
         TOTAL TIME 4.99662E+07 8.32770E+05  13880.      578.31      1.5833    


end timestep


start timestep kper="5" kstp="1" mode="normal"


 OUTPUT CONTROL FOR STRESS PERIOD 5 IS REPEATED USING SETTINGS FROM A PREVIOUS STRESS PERIOD.

end timestep


start timestep kper="5" kstp="2" mode="normal"


end timestep


start timestep kper="5" kstp="3" mode="normal"


end timestep


start timestep kper="5" kstp="4" mode="normal"


end timestep


start timestep kper="5" kstp="5" mode="normal"


end timestep


start timestep kper="5" kstp="6" mode="normal"


end timestep


start timestep kper="5" kstp="7" mode="normal"


end timestep


start timestep kper="5" kstp="8" mode="normal"


end timestep


start timestep kper="5" kstp="9" mode="normal"


end timestep


start timestep kper="5" kstp="10" mode="normal"



  VOLUME BUDGET FOR ENTIRE MODEL AT END OF TIME STEP   10, STRESS PERIOD   5
  ---------------------------------------------------------------------------------------------------

     CUMULATIVE VOLUME      L**3       RATES FOR THIS TIME STEP      L**3/T          PACKAGE NAME    
     ------------------                 ------------------------                     ----------------

           IN:                                      IN:
           ---                                      ---
                 WEL =     2524608.0000                   WEL =       4.0000E-02     WELL_INJECT                      
                 WEL =           0.0000                   WEL =           0.0000     WELL_EXTRACT                     
                 RIV =      801676.1220                   RIV =       1.2703E-02     RIV                              
                RCHA =      249718.3957                  RCHA =       3.9565E-03     RCH                              
                 CHD =     1056949.6204                   CHD =       1.6747E-02     CHD                              

            TOTAL IN =     4632952.1382              TOTAL IN =       7.3406E-02

          OUT:                                     OUT:
          ----                                     ----
                 WEL =           0.0000                   WEL =           0.0000     WELL_INJECT                      
                 WEL =     2524608.0000                   WEL =       4.0000E-02     WELL_EXTRACT                     
                 RIV =     1123519.4516                   RIV =       1.7800E-02     RIV                              
                RCHA =           0.0000                  RCHA =           0.0000     RCH                              
                 CHD =      985503.5184                   CHD =       1.5614E-02     CHD                              

           TOTAL OUT =     4633630.9699             TOTAL OUT =       7.3415E-02

            IN - OUT =        -678.8317              IN - OUT =      -8.9183E-06

 PERCENT DISCREPANCY =          -0.01     PERCENT DISCREPANCY =          -0.01




         TIME SUMMARY AT END OF TIME STEP   10 IN STRESS PERIOD    5
                    SECONDS     MINUTES      HOURS       DAYS        YEARS
                    -----------------------------------------------------------
   TIME STEP LENGTH 1.31490E+06  21915.      365.25      15.219     4.16667E-02
 STRESS PERIOD TIME 1.31490E+07 2.19150E+05  3652.5      152.19     0.41667    
         TOTAL TIME 6.31152E+07 1.05192E+06  17532.      730.50      2.0000    


end timestep


start timestep kper="6" kstp="1" mode="normal"


 OUTPUT CONTROL FOR STRESS PERIOD 6 IS REPEATED USING SETTINGS FROM A PREVIOUS STRESS PERIOD.

end timestep


start timestep kper="6" kstp="2" mode="normal"


end timestep


start timestep kper="6" kstp="3" mode="normal"


end timestep


start timestep kper="6" kstp="4" mode="normal"


end timestep


start timestep kper="6" kstp="5" mode="normal"


end timestep


start timestep kper="6" kstp="6" mode="normal"


end timestep


start timestep kper="6" kstp="7" mode="normal"


end timestep


start timestep kper="6" kstp="8" mode="normal"


end timestep


start timestep kper="6" kstp="9" mode="normal"


end timestep


start timestep kper="6" kstp="10" mode="normal"


end timestep


start timestep kper="6" kstp="11" mode="normal"


end timestep


start timestep kper="6" kstp="12" mode="normal"


end timestep


start timestep kper="6" kstp="13" mode="normal"


end timestep


start timestep kper="6" kstp="14" mode="normal"



  VOLUME BUDGET FOR ENTIRE MODEL AT END OF TIME STEP   14, STRESS PERIOD   6
  ---------------------------------------------------------------------------------------------------

     CUMULATIVE VOLUME      L**3       RATES FOR THIS TIME STEP      L**3/T          PACKAGE NAME    
     ------------------                 ------------------------                     ----------------

           IN:                                      IN:
           ---                                      ---
                 WEL =     3260952.0000                   WEL =       4.0000E-02     WELL_INJECT                      
                 WEL =           0.0000                   WEL =           0.0000     WELL_EXTRACT                     
                 RIV =     1035513.5063                   RIV =       1.2703E-02     RIV                              
                RCHA =      322552.9267                  RCHA =       3.9565E-03     RCH                              
                 CHD =     1365231.2160                   CHD =       1.6747E-02     CHD                              

            TOTAL IN =     5984249.6490              TOTAL IN =       7.3406E-02

          OUT:                                     OUT:
          ----                                     ----
                 WEL =           0.0000                   WEL =           0.0000     WELL_INJECT                      
                 WEL =     3260952.0000                   WEL =       4.0000E-02     WELL_EXTRACT                     
                 RIV =     1451198.6396                   RIV =       1.7800E-02     RIV                              
                RCHA =           0.0000                  RCHA =           0.0000     RCH                              
                 CHD =     1272940.0299                   CHD =       1.5614E-02     CHD                              

           TOTAL OUT =     5985090.6695             TOTAL OUT =       7.3415E-02

            IN - OUT =        -841.0205              IN - OUT =      -8.7172E-06

 PERCENT DISCREPANCY =          -0.01     PERCENT DISCREPANCY =          -0.01




         TIME SUMMARY AT END OF TIME STEP   14 IN STRESS PERIOD    6
                    SECONDS     MINUTES      HOURS       DAYS        YEARS
                    -----------------------------------------------------------
   TIME STEP LENGTH 1.31490E+06  21915.      365.25      15.219     4.16667E-02
 STRESS PERIOD TIME 1.84086E+07 3.06810E+05  5113.5      213.06     0.58333    
         TOTAL TIME 8.15238E+07 1.35873E+06  22646.      943.56      2.5833    


end timestep


start timestep kper="7" kstp="1" mode="normal"


 OUTPUT CONTROL FOR STRESS PERIOD 7 IS REPEATED USING SETTINGS FROM A PREVIOUS STRESS PERIOD.

end timestep


start timestep kper="7" kstp="2" mode="normal"


end timestep


start timestep kper="7" kstp="3" mode="normal"


end timestep


start timestep kper="7" kstp="4" mode="normal"


end timestep


start timestep kper="7" kstp="5" mode="normal"


end timestep


start timestep kper="7" kstp="6" mode="normal"


end timestep


start timestep kper="7" kstp="7" mode="normal"


end timestep


start timestep kper="7" kstp="8" mode="normal"


end timestep


start timestep kper="7" kstp="9" mode="normal"


end timestep


start timestep kper="7" kstp="10" mode="normal"



  VOLUME BUDGET FOR ENTIRE MODEL AT END OF TIME STEP   10, STRESS PERIOD   7
  ---------------------------------------------------------------------------------------------------

     CUMULATIVE VOLUME      L**3       RATES FOR THIS TIME STEP      L**3/T          PACKAGE NAME    
     ------------------                 ------------------------                     ----------------

           IN:                                      IN:
           ---                                      ---
                 WEL =     3786912.0000                   WEL =       4.0000E-02     WELL_INJECT                      
                 WEL =           0.0000                   WEL =           0.0000     WELL_EXTRACT                     
                 RIV =     1202541.1557                   RIV =       1.2703E-02     RIV                              
                RCHA =      374577.5916                  RCHA =       3.9565E-03     RCH                              
                 CHD =     1585432.6671                   CHD =       1.6747E-02     CHD                              

            TOTAL IN =     6949463.4145              TOTAL IN =       7.3406E-02

          OUT:                                     OUT:
          ----                                     ----
                 WEL =           0.0000                   WEL =           0.0000     WELL_INJECT                      
                 WEL =     3786912.0000                   WEL =       4.0000E-02     WELL_EXTRACT                     
                 RIV =     1685254.2448                   RIV =       1.7800E-02     RIV                              
                RCHA =           0.0000                  RCHA =           0.0000     RCH                              
                 CHD =     1478251.6796                   CHD =       1.5614E-02     CHD                              

           TOTAL OUT =     6950417.9244             TOTAL OUT =       7.3414E-02

            IN - OUT =        -954.5099              IN - OUT =      -8.5629E-06

 PERCENT DISCREPANCY =          -0.01     PERCENT DISCREPANCY =          -0.01




         TIME SUMMARY AT END OF TIME STEP   10 IN STRESS PERIOD    7
                    SECONDS     MINUTES      HOURS       DAYS        YEARS
                    -----------------------------------------------------------
   TIME STEP LENGTH 1.31490E+06  21915.      365.25      15.219     4.16667E-02
 STRESS PERIOD TIME 1.31490E+07 2.19150E+05  3652.5      152.19     0.41667    
         TOTAL TIME 9.46728E+07 1.57788E+06  26298.      1095.8      3.0000    


end timestep


start timestep kper="8" kstp="1" mode="normal"


 OUTPUT CONTROL FOR STRESS PERIOD 8 IS REPEATED USING SETTINGS FROM A PREVIOUS STRESS PERIOD.

end timestep


start timestep kper="8" kstp="2" mode="normal"


end timestep


start timestep kper="8" kstp="3" mode="normal"


end timestep


start timestep kper="8" kstp="4" mode="normal"


end timestep


start timestep kper="8" kstp="5" mode="normal"


end timestep


start timestep kper="8" kstp="6" mode="normal"


end timestep


start timestep kper="8" kstp="7" mode="normal"


end timestep


start timestep kper="8" kstp="8" mode="normal"


end timestep


start timestep kper="8" kstp="9" mode="normal"


end timestep


start timestep kper="8" kstp="10" mode="normal"


end timestep


start timestep kper="8" kstp="11" mode="normal"


end timestep


start timestep kper="8" kstp="12" mode="normal"


end timestep


start timestep kper="8" kstp="13" mode="normal"


end timestep


start timestep kper="8" kstp="14" mode="normal"



  VOLUME BUDGET FOR ENTIRE MODEL AT END OF TIME STEP   14, STRESS PERIOD   8
  ---------------------------------------------------------------------------------------------------

     CUMULATIVE VOLUME      L**3       RATES FOR THIS TIME STEP      L**3/T          PACKAGE NAME    
     ------------------                 ------------------------                     ----------------

           IN:                                      IN:
           ---                                      ---
                 WEL =     4523256.0000                   WEL =       4.0000E-02     WELL_INJECT                      
                 WEL =           0.0000                   WEL =           0.0000     WELL_EXTRACT                     
                 RIV =     1436381.2938                   RIV =       1.2703E-02     RIV                              
                RCHA =      447412.1226                  RCHA =       3.9565E-03     RCH                              
                 CHD =     1893715.1302                   CHD =       1.6747E-02     CHD                              

            TOTAL IN =     8300764.5465              TOTAL IN =       7.3406E-02

          OUT:                                     OUT:
          ----                                     ----
                 WEL =           0.0000                   WEL =           0.0000     WELL_INJECT                      
                 WEL =     4523256.0000                   WEL =       4.0000E-02     WELL_EXTRACT                     
                 RIV =     2012930.6551                   RIV =       1.7800E-02     RIV                              
                RCHA =           0.0000                  RCHA =           0.0000     RCH                              
                 CHD =     1765687.7928                   CHD =       1.5614E-02     CHD                              

           TOTAL OUT =     8301874.4479             TOTAL OUT =       7.3414E-02

            IN - OUT =       -1109.9013              IN - OUT =      -8.3382E-06

 PERCENT DISCREPANCY =          -0.01     PERCENT DISCREPANCY =          -0.01




         TIME SUMMARY AT END OF TIME STEP   14 IN STRESS PERIOD    8
                    SECONDS     MINUTES      HOURS       DAYS        YEARS
                    -----------------------------------------------------------
   TIME STEP LENGTH 1.31490E+06  21915.      365.25      15.219     4.16667E-02
 STRESS PERIOD TIME 1.84086E+07 3.06810E+05  5113.5      213.06     0.58333    
         TOTAL TIME 1.13081E+08 1.88469E+06  31412.      1308.8      3.5833    


end timestep


start timestep kper="9" kstp="1" mode="normal"


 OUTPUT CONTROL FOR STRESS PERIOD 9 IS REPEATED USING SETTINGS FROM A PREVIOUS STRESS PERIOD.

end timestep


start timestep kper="9" kstp="2" mode="normal"


end timestep


start timestep kper="9" kstp="3" mode="normal"


end timestep


start timestep kper="9" kstp="4" mode="normal"


end timestep


start timestep kper="9" kstp="5" mode="normal"


end timestep


start timestep kper="9" kstp="6" mode="normal"


end timestep


start timestep kper="9" kstp="7" mode="normal"


end timestep


start timestep kper="9" kstp="8" mode="normal"


end timestep


start timestep kper="9" kstp="9" mode="normal"


end timestep


start timestep kper="9" kstp="10" mode="normal"



  VOLUME BUDGET FOR ENTIRE MODEL AT END OF TIME STEP   10, STRESS PERIOD   9
  ---------------------------------------------------------------------------------------------------

     CUMULATIVE VOLUME      L**3       RATES FOR THIS TIME STEP      L**3/T          PACKAGE NAME    
     ------------------                 ------------------------                     ----------------

           IN:                                      IN:
           ---                                      ---
                 WEL =     5049216.0000                   WEL =       4.0000E-02     WELL_INJECT                      
                 WEL =           0.0000                   WEL =           0.0000     WELL_EXTRACT                     
                 RIV =     1603411.0195                   RIV =       1.2703E-02     RIV                              
                RCHA =      499436.7875                  RCHA =       3.9565E-03     RCH                              
                 CHD =     2113917.1962                   CHD =       1.6747E-02     CHD                              

            TOTAL IN =     9265981.0032              TOTAL IN =       7.3406E-02

          OUT:                                     OUT:
          ----                                     ----
                 WEL =           0.0000                   WEL =           0.0000     WELL_INJECT                      
                 WEL =     5049216.0000                   WEL =       4.0000E-02     WELL_EXTRACT                     
                 RIV =     2246984.1711                   RIV =       1.7800E-02     RIV                              
                RCHA =           0.0000                  RCHA =           0.0000     RCH                              
                 CHD =     1970999.1626                   CHD =       1.5614E-02     CHD                              

           TOTAL OUT =     9267199.3337             TOTAL OUT =       7.3414E-02

            IN - OUT =       -1218.3305              IN - OUT =      -8.1743E-06

 PERCENT DISCREPANCY =          -0.01     PERCENT DISCREPANCY =          -0.01




         TIME SUMMARY AT END OF TIME STEP   10 IN STRESS PERIOD    9
                    SECONDS     MINUTES      HOURS       DAYS        YEARS
                    -----------------------------------------------------------
   TIME STEP LENGTH 1.31490E+06  21915.      365.25      15.219     4.16667E-02
 STRESS PERIOD TIME 1.31490E+07 2.19150E+05  3652.5      152.19     0.41667    
         TOTAL TIME 1.26230E+08 2.10384E+06  35064.      1461.0      4.0000    


end timestep


start timestep kper="10" kstp="1" mode="normal"


 OUTPUT CONTROL FOR STRESS PERIOD 10 IS REPEATED USING SETTINGS FROM A PREVIOUS STRESS PERIOD.

end timestep


start timestep kper="10" kstp="2" mode="normal"


end timestep


start timestep kper="10" kstp="3" mode="normal"


end timestep


start timestep kper="10" kstp="4" mode="normal"


end timestep


start timestep kper="10" kstp="5" mode="normal"


end timestep


start timestep kper="10" kstp="6" mode="normal"


end timestep


start timestep kper="10" kstp="7" mode="normal"


end timestep


start timestep kper="10" kstp="8" mode="normal"


end timestep


start timestep kper="10" kstp="9" mode="normal"


end timestep


start timestep kper="10" kstp="10" mode="normal"


end timestep


start timestep kper="10" kstp="11" mode="normal"


end timestep


start timestep kper="10" kstp="12" mode="normal"


end timestep


start timestep kper="10" kstp="13" mode="normal"


end timestep


start timestep kper="10" kstp="14" mode="normal"



  VOLUME BUDGET FOR ENTIRE MODEL AT END OF TIME STEP   14, STRESS PERIOD  10
  ---------------------------------------------------------------------------------------------------

     CUMULATIVE VOLUME      L**3       RATES FOR THIS TIME STEP      L**3/T          PACKAGE NAME    
     ------------------                 ------------------------                     ----------------

           IN:                                      IN:
           ---                                      ---
                 WEL =     5785560.0000                   WEL =       4.0000E-02     WELL_INJECT                      
                 WEL =           0.0000                   WEL =           0.0000     WELL_EXTRACT                     
                 RIV =     1837254.1367                   RIV =       1.2703E-02     RIV                              
                RCHA =      572271.3185                  RCHA =       3.9565E-03     RCH                              
                 CHD =     2422200.5155                   CHD =       1.6747E-02     CHD                              

            TOTAL IN =    10617285.9707              TOTAL IN =       7.3406E-02

          OUT:                                     OUT:
          ----                                     ----
                 WEL =           0.0000                   WEL =           0.0000     WELL_INJECT                      
                 WEL =     5785560.0000                   WEL =       4.0000E-02     WELL_EXTRACT                     
                 RIV =     2574657.5778                   RIV =       1.7800E-02     RIV                              
                RCHA =           0.0000                  RCHA =           0.0000     RCH                              
                 CHD =     2258434.8849                   CHD =       1.5614E-02     CHD                              

           TOTAL OUT =    10618652.4627             TOTAL OUT =       7.3414E-02

            IN - OUT =       -1366.4920              IN - OUT =      -7.9432E-06

 PERCENT DISCREPANCY =          -0.01     PERCENT DISCREPANCY =          -0.01




         TIME SUMMARY AT END OF TIME STEP   14 IN STRESS PERIOD   10
                    SECONDS     MINUTES      HOURS       DAYS        YEARS
                    -----------------------------------------------------------
   TIME STEP LENGTH 1.31490E+06  21915.      365.25      15.219     4.16667E-02
 STRESS PERIOD TIME 1.84086E+07 3.06810E+05  5113.5      213.06     0.58333    
         TOTAL TIME 1.44639E+08 2.41065E+06  40178.      1674.1      4.5833    


end timestep


start timestep kper="11" kstp="1" mode="normal"


 OUTPUT CONTROL FOR STRESS PERIOD 11 IS REPEATED USING SETTINGS FROM A PREVIOUS STRESS PERIOD.

end timestep


start timestep kper="11" kstp="2" mode="normal"


end timestep


start timestep kper="11" kstp="3" mode="normal"


end timestep


start timestep kper="11" kstp="4" mode="normal"


end timestep


start timestep kper="11" kstp="5" mode="normal"


end timestep


start timestep kper="11" kstp="6" mode="normal"


end timestep


start timestep kper="11" kstp="7" mode="normal"


end timestep


start timestep kper="11" kstp="8" mode="normal"


end timestep


start timestep kper="11" kstp="9" mode="normal"


end timestep


start timestep kper="11" kstp="10" mode="normal"



  VOLUME BUDGET FOR ENTIRE MODEL AT END OF TIME STEP   10, STRESS PERIOD  11
  ---------------------------------------------------------------------------------------------------

     CUMULATIVE VOLUME      L**3       RATES FOR THIS TIME STEP      L**3/T          PACKAGE NAME    
     ------------------                 ------------------------                     ----------------

           IN:                                      IN:
           ---                                      ---
                 WEL =     6311520.0000                   WEL =       4.0000E-02     WELL_INJECT                      
                 WEL =           0.0000                   WEL =           0.0000     WELL_EXTRACT                     
                 RIV =     2004286.0087                   RIV =       1.2703E-02     RIV                              
                RCHA =      624295.9834                  RCHA =       3.9565E-03     RCH                              
                 CHD =     2642403.1891                   CHD =       1.6747E-02     CHD                              

            TOTAL IN =    11582505.1813              TOTAL IN =       7.3406E-02

          OUT:                                     OUT:
          ----                                     ----
                 WEL =           0.0000                   WEL =           0.0000     WELL_INJECT                      
                 WEL =     6311520.0000                   WEL =       4.0000E-02     WELL_EXTRACT                     
                 RIV =     2808708.9251                   RIV =       1.7800E-02     RIV                              
                RCHA =           0.0000                  RCHA =           0.0000     RCH                              
                 CHD =     2463745.9760                   CHD =       1.5614E-02     CHD                              

           TOTAL OUT =    11583974.9011             TOTAL OUT =       7.3414E-02

            IN - OUT =       -1469.7198              IN - OUT =      -7.7787E-06

 PERCENT DISCREPANCY =          -0.01     PERCENT DISCREPANCY =          -0.01




         TIME SUMMARY AT END OF TIME STEP   10 IN STRESS PERIOD   11
                    SECONDS     MINUTES      HOURS       DAYS        YEARS
                    -----------------------------------------------------------
   TIME STEP LENGTH 1.31490E+06  21915.      365.25      15.219     4.16667E-02
 STRESS PERIOD TIME 1.31490E+07 2.19150E+05  3652.5      152.19     0.41667    
         TOTAL TIME 1.57788E+08 2.62980E+06  43830.      1826.3      5.0000    


end timestep


start timestep kper="12" kstp="1" mode="normal"


 OUTPUT CONTROL FOR STRESS PERIOD 12 IS REPEATED USING SETTINGS FROM A PREVIOUS STRESS PERIOD.

end timestep


start timestep kper="12" kstp="2" mode="normal"


end timestep


start timestep kper="12" kstp="3" mode="normal"


end timestep


start timestep kper="12" kstp="4" mode="normal"


end timestep


start timestep kper="12" kstp="5" mode="normal"


end timestep


start timestep kper="12" kstp="6" mode="normal"


end timestep


start timestep kper="12" kstp="7" mode="normal"


end timestep


start timestep kper="12" kstp="8" mode="normal"


end timestep


start timestep kper="12" kstp="9" mode="normal"


end timestep


start timestep kper="12" kstp="10" mode="normal"


end timestep


start timestep kper="12" kstp="11" mode="normal"


end timestep


start timestep kper="12" kstp="12" mode="normal"


end timestep


start timestep kper="12" kstp="13" mode="normal"


end timestep


start timestep kper="12" kstp="14" mode="normal"



  VOLUME BUDGET FOR ENTIRE MODEL AT END OF TIME STEP   14, STRESS PERIOD  12
  ---------------------------------------------------------------------------------------------------

     CUMULATIVE VOLUME      L**3       RATES FOR THIS TIME STEP      L**3/T          PACKAGE NAME    
     ------------------                 ------------------------                     ----------------

           IN:                                      IN:
           ---                                      ---
                 WEL =     7047864.0000                   WEL =       4.0000E-02     WELL_INJECT                      
                 WEL =           0.0000                   WEL =           0.0000     WELL_EXTRACT                     
                 RIV =     2238132.1230                   RIV =       1.2703E-02     RIV                              
                RCHA =      697130.5144                  RCHA =       3.9565E-03     RCH                              
                 CHD =     2950687.3510                   CHD =       1.6747E-02     CHD                              

            TOTAL IN =    12933813.9884              TOTAL IN =       7.3406E-02

          OUT:                                     OUT:
          ----                                     ----
                 WEL =           0.0000                   WEL =           0.0000     WELL_INJECT                      
                 WEL =     7047864.0000                   WEL =       4.0000E-02     WELL_EXTRACT                     
                 RIV =     3136379.3002                   RIV =       1.7800E-02     RIV                              
                RCHA =           0.0000                  RCHA =           0.0000     RCH                              
                 CHD =     2751181.3101                   CHD =       1.5614E-02     CHD                              

           TOTAL OUT =    12935424.6103             TOTAL OUT =       7.3414E-02

            IN - OUT =       -1610.6220              IN - OUT =      -7.5505E-06

 PERCENT DISCREPANCY =          -0.01     PERCENT DISCREPANCY =          -0.01




         TIME SUMMARY AT END OF TIME STEP   14 IN STRESS PERIOD   12
                    SECONDS     MINUTES      HOURS       DAYS        YEARS
                    -----------------------------------------------------------
   TIME STEP LENGTH 1.31490E+06  21915.      365.25      15.219     4.16667E-02
 STRESS PERIOD TIME 1.84086E+07 3.06810E+05  5113.5      213.06     0.58333    
         TOTAL TIME 1.76197E+08 2.93661E+06  48944.      2039.3      5.5833    


end timestep


start timestep kper="13" kstp="1" mode="normal"


 OUTPUT CONTROL FOR STRESS PERIOD 13 IS REPEATED USING SETTINGS FROM A PREVIOUS STRESS PERIOD.

end timestep


start timestep kper="13" kstp="2" mode="normal"


end timestep


start timestep kper="13" kstp="3" mode="normal"


end timestep


start timestep kper="13" kstp="4" mode="normal"


end timestep


start timestep kper="13" kstp="5" mode="normal"


end timestep


start timestep kper="13" kstp="6" mode="normal"


end timestep


start timestep kper="13" kstp="7" mode="normal"


end timestep


start timestep kper="13" kstp="8" mode="normal"


end timestep


start timestep kper="13" kstp="9" mode="normal"


end timestep


start timestep kper="13" kstp="10" mode="normal"



  VOLUME BUDGET FOR ENTIRE MODEL AT END OF TIME STEP   10, STRESS PERIOD  13
  ---------------------------------------------------------------------------------------------------

     CUMULATIVE VOLUME      L**3       RATES FOR THIS TIME STEP      L**3/T          PACKAGE NAME    
     ------------------                 ------------------------                     ----------------

           IN:                                      IN:
           ---                                      ---
                 WEL =     7573824.0000                   WEL =       4.0000E-02     WELL_INJECT                      
                 WEL =           0.0000                   WEL =           0.0000     WELL_EXTRACT                     
                 RIV =     2405166.1162                   RIV =       1.2703E-02     RIV                              
                RCHA =      749155.1793                  RCHA =       3.9565E-03     RCH                              
                 CHD =     3170890.6189                   CHD =       1.6747E-02     CHD                              

            TOTAL IN =    13899035.9144              TOTAL IN =       7.3407E-02

          OUT:                                     OUT:
          ----                                     ----
                 WEL =           0.0000                   WEL =           0.0000     WELL_INJECT                      
                 WEL =     7573824.0000                   WEL =       4.0000E-02     WELL_EXTRACT                     
                 RIV =     3370428.5007                   RIV =       1.7800E-02     RIV                              
                RCHA =           0.0000                  RCHA =           0.0000     RCH                              
                 CHD =     2956492.1265                   CHD =       1.5614E-02     CHD                              

           TOTAL OUT =    13900744.6272             TOTAL OUT =       7.3414E-02

            IN - OUT =       -1708.7128              IN - OUT =      -7.3898E-06

 PERCENT DISCREPANCY =          -0.01     PERCENT DISCREPANCY =          -0.01




         TIME SUMMARY AT END OF TIME STEP   10 IN STRESS PERIOD   13
                    SECONDS     MINUTES      HOURS       DAYS        YEARS
                    -----------------------------------------------------------
   TIME STEP LENGTH 1.31490E+06  21915.      365.25      15.219     4.16667E-02
 STRESS PERIOD TIME 1.31490E+07 2.19150E+05  3652.5      152.19     0.41667    
         TOTAL TIME 1.89346E+08 3.15576E+06  52596.      2191.5      6.0000    


end timestep


start timestep kper="14" kstp="1" mode="normal"


 OUTPUT CONTROL FOR STRESS PERIOD 14 IS REPEATED USING SETTINGS FROM A PREVIOUS STRESS PERIOD.

end timestep


start timestep kper="14" kstp="2" mode="normal"


end timestep


start timestep kper="14" kstp="3" mode="normal"


end timestep


start timestep kper="14" kstp="4" mode="normal"


end timestep


start timestep kper="14" kstp="5" mode="normal"


end timestep


start timestep kper="14" kstp="6" mode="normal"


end timestep


start timestep kper="14" kstp="7" mode="normal"


end timestep


start timestep kper="14" kstp="8" mode="normal"


end timestep


start timestep kper="14" kstp="9" mode="normal"


end timestep


start timestep kper="14" kstp="10" mode="normal"


end timestep


start timestep kper="14" kstp="11" mode="normal"


end timestep


start timestep kper="14" kstp="12" mode="normal"


end timestep


start timestep kper="14" kstp="13" mode="normal"


end timestep


start timestep kper="14" kstp="14" mode="normal"



  VOLUME BUDGET FOR ENTIRE MODEL AT END OF TIME STEP   14, STRESS PERIOD  14
  ---------------------------------------------------------------------------------------------------

     CUMULATIVE VOLUME      L**3       RATES FOR THIS TIME STEP      L**3/T          PACKAGE NAME    
     ------------------                 ------------------------                     ----------------

           IN:                                      IN:
           ---                                      ---
                 WEL =     8310168.0000                   WEL =       4.0000E-02     WELL_INJECT                      
                 WEL =           0.0000                   WEL =           0.0000     WELL_EXTRACT                     
                 RIV =     2639015.1583                   RIV =       1.2703E-02     RIV                              
                RCHA =      821989.7103                  RCHA =       3.9565E-03     RCH                              
                 CHD =     3479175.6001                   CHD =       1.6747E-02     CHD                              

            TOTAL IN =    15250348.4687              TOTAL IN =       7.3407E-02

          OUT:                                     OUT:
          ----                                     ----
                 WEL =           0.0000                   WEL =           0.0000     WELL_INJECT                      
                 WEL =     8310168.0000                   WEL =       4.0000E-02     WELL_EXTRACT                     
                 RIV =     3698095.9119                   RIV =       1.7800E-02     RIV                              
                RCHA =           0.0000                  RCHA =           0.0000     RCH                              
                 CHD =     3243927.0811                   CHD =       1.5614E-02     CHD                              

           TOTAL OUT =    15252190.9931             TOTAL OUT =       7.3414E-02

            IN - OUT =       -1842.5244              IN - OUT =      -7.1687E-06

 PERCENT DISCREPANCY =          -0.01     PERCENT DISCREPANCY =          -0.01




         TIME SUMMARY AT END OF TIME STEP   14 IN STRESS PERIOD   14
                    SECONDS     MINUTES      HOURS       DAYS        YEARS
                    -----------------------------------------------------------
   TIME STEP LENGTH 1.31490E+06  21915.      365.25      15.219     4.16667E-02
 STRESS PERIOD TIME 1.84086E+07 3.06810E+05  5113.5      213.06     0.58333    
         TOTAL TIME 2.07754E+08 3.46257E+06  57710.      2404.6      6.5833    


end timestep


start timestep kper="15" kstp="1" mode="normal"


 OUTPUT CONTROL FOR STRESS PERIOD 15 IS REPEATED USING SETTINGS FROM A PREVIOUS STRESS PERIOD.

end timestep


start timestep kper="15" kstp="2" mode="normal"


end timestep


start timestep kper="15" kstp="3" mode="normal"


end timestep


start timestep kper="15" kstp="4" mode="normal"


end timestep


start timestep kper="15" kstp="5" mode="normal"


end timestep


start timestep kper="15" kstp="6" mode="normal"


end timestep


start timestep kper="15" kstp="7" mode="normal"


end timestep


start timestep kper="15" kstp="8" mode="normal"


end timestep


start timestep kper="15" kstp="9" mode="normal"


end timestep


start timestep kper="15" kstp="10" mode="normal"



  VOLUME BUDGET FOR ENTIRE MODEL AT END OF TIME STEP   10, STRESS PERIOD  15
  ---------------------------------------------------------------------------------------------------

     CUMULATIVE VOLUME      L**3       RATES FOR THIS TIME STEP      L**3/T          PACKAGE NAME    
     ------------------                 ------------------------                     ----------------

           IN:                                      IN:
           ---                                      ---
                 WEL =     8836128.0000                   WEL =       4.0000E-02     WELL_INJECT                      
                 WEL =           0.0000                   WEL =           0.0000     WELL_EXTRACT                     
                 RIV =     2806051.2069                   RIV =       1.2703E-02     RIV                              
                RCHA =      874014.3752                  RCHA =       3.9565E-03     RCH                              
                 CHD =     3699379.4433                   CHD =       1.6747E-02     CHD                              

            TOTAL IN =    16215573.0254              TOTAL IN =       7.3407E-02

          OUT:                                     OUT:
          ----                                     ----
                 WEL =           0.0000                   WEL =           0.0000     WELL_INJECT                      
                 WEL =     8836128.0000                   WEL =       4.0000E-02     WELL_EXTRACT                     
                 RIV =     3932143.0320                   RIV =       1.7800E-02     RIV                              
                RCHA =           0.0000                  RCHA =           0.0000     RCH                              
                 CHD =     3449237.6308                   CHD =       1.5614E-02     CHD                              

           TOTAL OUT =    16217508.6628             TOTAL OUT =       7.3414E-02

            IN - OUT =       -1935.6374              IN - OUT =      -7.0139E-06

 PERCENT DISCREPANCY =          -0.01     PERCENT DISCREPANCY =          -0.01




         TIME SUMMARY AT END OF TIME STEP   10 IN STRESS PERIOD   15
                    SECONDS     MINUTES      HOURS       DAYS        YEARS
                    -----------------------------------------------------------
   TIME STEP LENGTH 1.31490E+06  21915.      365.25      15.219     4.16667E-02
 STRESS PERIOD TIME 1.31490E+07 2.19150E+05  3652.5      152.19     0.41667    
         TOTAL TIME 2.20903E+08 3.68172E+06  61362.      2556.8      7.0000    


end timestep


start timestep kper="16" kstp="1" mode="normal"


 OUTPUT CONTROL FOR STRESS PERIOD 16 IS REPEATED USING SETTINGS FROM A PREVIOUS STRESS PERIOD.

end timestep


start timestep kper="16" kstp="2" mode="normal"


end timestep


start timestep kper="16" kstp="3" mode="normal"


end timestep


start timestep kper="16" kstp="4" mode="normal"


end timestep


start timestep kper="16" kstp="5" mode="normal"


end timestep


start timestep kper="16" kstp="6" mode="normal"


end timestep


start timestep kper="16" kstp="7" mode="normal"


end timestep


start timestep kper="16" kstp="8" mode="normal"


end timestep


start timestep kper="16" kstp="9" mode="normal"


end timestep


start timestep kper="16" kstp="10" mode="normal"


end timestep


start timestep kper="16" kstp="11" mode="normal"


end timestep


start timestep kper="16" kstp="12" mode="normal"


end timestep


start timestep kper="16" kstp="13" mode="normal"


end timestep


start timestep kper="16" kstp="14" mode="normal"



  VOLUME BUDGET FOR ENTIRE MODEL AT END OF TIME STEP   14, STRESS PERIOD  16
  ---------------------------------------------------------------------------------------------------

     CUMULATIVE VOLUME      L**3       RATES FOR THIS TIME STEP      L**3/T          PACKAGE NAME    
     ------------------                 ------------------------                     ----------------

           IN:                                      IN:
           ---                                      ---
                 WEL =     9572472.0000                   WEL =       4.0000E-02     WELL_INJECT                      
                 WEL =           0.0000                   WEL =           0.0000     WELL_EXTRACT                     
                 RIV =     3039903.0699                   RIV =       1.2703E-02     RIV                              
                RCHA =      946848.9062                  RCHA =       3.9565E-03     RCH                              
                 CHD =     4007665.2145                   CHD =       1.6747E-02     CHD                              

            TOTAL IN =    17566889.1906              TOTAL IN =       7.3407E-02

          OUT:                                     OUT:
          ----                                     ----
                 WEL =           0.0000                   WEL =           0.0000     WELL_INJECT                      
                 WEL =     9572472.0000                   WEL =       4.0000E-02     WELL_EXTRACT                     
                 RIV =     4259807.5896                   RIV =       1.7799E-02     RIV                              
                RCHA =           0.0000                  RCHA =           0.0000     RCH                              
                 CHD =     3736672.2191                   CHD =       1.5614E-02     CHD                              

           TOTAL OUT =    17568951.8087             TOTAL OUT =       7.3414E-02

            IN - OUT =       -2062.6181              IN - OUT =      -6.8019E-06

 PERCENT DISCREPANCY =          -0.01     PERCENT DISCREPANCY =          -0.01




         TIME SUMMARY AT END OF TIME STEP   14 IN STRESS PERIOD   16
                    SECONDS     MINUTES      HOURS       DAYS        YEARS
                    -----------------------------------------------------------
   TIME STEP LENGTH 1.31490E+06  21915.      365.25      15.219     4.16667E-02
 STRESS PERIOD TIME 1.84086E+07 3.06810E+05  5113.5      213.06     0.58333    
         TOTAL TIME 2.39312E+08 3.98853E+06  66476.      2769.8      7.5833    


end timestep


start timestep kper="17" kstp="1" mode="normal"


 OUTPUT CONTROL FOR STRESS PERIOD 17 IS REPEATED USING SETTINGS FROM A PREVIOUS STRESS PERIOD.

end timestep


start timestep kper="17" kstp="2" mode="normal"


end timestep


start timestep kper="17" kstp="3" mode="normal"


end timestep


start timestep kper="17" kstp="4" mode="normal"


end timestep


start timestep kper="17" kstp="5" mode="normal"


end timestep


start timestep kper="17" kstp="6" mode="normal"


end timestep


start timestep kper="17" kstp="7" mode="normal"


end timestep


start timestep kper="17" kstp="8" mode="normal"


end timestep


start timestep kper="17" kstp="9" mode="normal"


end timestep


start timestep kper="17" kstp="10" mode="normal"



  VOLUME BUDGET FOR ENTIRE MODEL AT END OF TIME STEP   10, STRESS PERIOD  17
  ---------------------------------------------------------------------------------------------------

     CUMULATIVE VOLUME      L**3       RATES FOR THIS TIME STEP      L**3/T          PACKAGE NAME    
     ------------------                 ------------------------                     ----------------

           IN:                                      IN:
           ---                                      ---
                 WEL =    10098432.0000                   WEL =       4.0000E-02     WELL_INJECT                      
                 WEL =           0.0000                   WEL =           0.0000     WELL_EXTRACT                     
                 RIV =     3206941.0910                   RIV =       1.2704E-02     RIV                              
                RCHA =      998873.5711                  RCHA =       3.9565E-03     RCH                              
                 CHD =     4227869.6105                   CHD =       1.6747E-02     CHD                              

            TOTAL IN =    18532116.2726              TOTAL IN =       7.3407E-02

          OUT:                                     OUT:
          ----                                     ----
                 WEL =           0.0000                   WEL =           0.0000     WELL_INJECT                      
                 WEL =    10098432.0000                   WEL =       4.0000E-02     WELL_EXTRACT                     
                 RIV =     4493852.7159                   RIV =       1.7799E-02     RIV                              
                RCHA =           0.0000                  RCHA =           0.0000     RCH                              
                 CHD =     3941982.5124                   CHD =       1.5614E-02     CHD                              

           TOTAL OUT =    18534267.2283             TOTAL OUT =       7.3414E-02

            IN - OUT =       -2150.9557              IN - OUT =      -6.6537E-06

 PERCENT DISCREPANCY =          -0.01     PERCENT DISCREPANCY =          -0.01




         TIME SUMMARY AT END OF TIME STEP   10 IN STRESS PERIOD   17
                    SECONDS     MINUTES      HOURS       DAYS        YEARS
                    -----------------------------------------------------------
   TIME STEP LENGTH 1.31490E+06  21915.      365.25      15.219     4.16667E-02
 STRESS PERIOD TIME 1.31490E+07 2.19150E+05  3652.5      152.19     0.41667    
         TOTAL TIME 2.52461E+08 4.20768E+06  70128.      2922.0      8.0000    


end timestep


start timestep kper="18" kstp="1" mode="normal"


 OUTPUT CONTROL FOR STRESS PERIOD 18 IS REPEATED USING SETTINGS FROM A PREVIOUS STRESS PERIOD.

end timestep


start timestep kper="18" kstp="2" mode="normal"


end timestep


start timestep kper="18" kstp="3" mode="normal"


end timestep


start timestep kper="18" kstp="4" mode="normal"


end timestep


start timestep kper="18" kstp="5" mode="normal"


end timestep


start timestep kper="18" kstp="6" mode="normal"


end timestep


start timestep kper="18" kstp="7" mode="normal"


end timestep


start timestep kper="18" kstp="8" mode="normal"


end timestep


start timestep kper="18" kstp="9" mode="normal"


end timestep


start timestep kper="18" kstp="10" mode="normal"


end timestep


start timestep kper="18" kstp="11" mode="normal"


end timestep


start timestep kper="18" kstp="12" mode="normal"


end timestep


start timestep kper="18" kstp="13" mode="normal"


end timestep


start timestep kper="18" kstp="14" mode="normal"



  VOLUME BUDGET FOR ENTIRE MODEL AT END OF TIME STEP   14, STRESS PERIOD  18
  ---------------------------------------------------------------------------------------------------

     CUMULATIVE VOLUME      L**3       RATES FOR THIS TIME STEP      L**3/T          PACKAGE NAME    
     ------------------                 ------------------------                     ----------------

           IN:                                      IN:
           ---                                      ---
                 WEL =    10834776.0000                   WEL =       4.0000E-02     WELL_INJECT                      
                 WEL =           0.0000                   WEL =           0.0000     WELL_EXTRACT                     
                 RIV =     3440795.6546                   RIV =       1.2704E-02     RIV                              
                RCHA =     1071708.1020                  RCHA =       3.9565E-03     RCH                              
                 CHD =     4536156.1392                   CHD =       1.6747E-02     CHD                              

            TOTAL IN =    19883435.8958              TOTAL IN =       7.3407E-02

          OUT:                                     OUT:
          ----                                     ----
                 WEL =           0.0000                   WEL =           0.0000     WELL_INJECT                      
                 WEL =    10834776.0000                   WEL =       4.0000E-02     WELL_EXTRACT                     
                 RIV =     4821514.5457                   RIV =       1.7799E-02     RIV                              
                RCHA =           0.0000                  RCHA =           0.0000     RCH                              
                 CHD =     4229416.7497                   CHD =       1.5614E-02     CHD                              

           TOTAL OUT =    19885707.2954             TOTAL OUT =       7.3413E-02

            IN - OUT =       -2271.3995              IN - OUT =      -6.4512E-06

 PERCENT DISCREPANCY =          -0.01     PERCENT DISCREPANCY =          -0.01




         TIME SUMMARY AT END OF TIME STEP   14 IN STRESS PERIOD   18
                    SECONDS     MINUTES      HOURS       DAYS        YEARS
                    -----------------------------------------------------------
   TIME STEP LENGTH 1.31490E+06  21915.      365.25      15.219     4.16667E-02
 STRESS PERIOD TIME 1.84086E+07 3.06810E+05  5113.5      213.06     0.58333    
         TOTAL TIME 2.70869E+08 4.51449E+06  75242.      3135.1      8.5833    


end timestep


start timestep kper="19" kstp="1" mode="normal"


 OUTPUT CONTROL FOR STRESS PERIOD 19 IS REPEATED USING SETTINGS FROM A PREVIOUS STRESS PERIOD.

end timestep


start timestep kper="19" kstp="2" mode="normal"


end timestep


start timestep kper="19" kstp="3" mode="normal"


end timestep


start timestep kper="19" kstp="4" mode="normal"


end timestep


start timestep kper="19" kstp="5" mode="normal"


end timestep


start timestep kper="19" kstp="6" mode="normal"


end timestep


start timestep kper="19" kstp="7" mode="normal"


end timestep


start timestep kper="19" kstp="8" mode="normal"


end timestep


start timestep kper="19" kstp="9" mode="normal"


end timestep


start timestep kper="19" kstp="10" mode="normal"



  VOLUME BUDGET FOR ENTIRE MODEL AT END OF TIME STEP   10, STRESS PERIOD  19
  ---------------------------------------------------------------------------------------------------

     CUMULATIVE VOLUME      L**3       RATES FOR THIS TIME STEP      L**3/T          PACKAGE NAME    
     ------------------                 ------------------------                     ----------------

           IN:                                      IN:
           ---                                      ---
                 WEL =    11360736.0000                   WEL =       4.0000E-02     WELL_INJECT                      
                 WEL =           0.0000                   WEL =           0.0000     WELL_EXTRACT                     
                 RIV =     3607835.5610                   RIV =       1.2704E-02     RIV                              
                RCHA =     1123732.7670                  RCHA =       3.9565E-03     RCH                              
                 CHD =     4756361.0642                   CHD =       1.6747E-02     CHD                              

            TOTAL IN =    20848665.3922              TOTAL IN =       7.3407E-02

          OUT:                                     OUT:
          ----                                     ----
                 WEL =           0.0000                   WEL =           0.0000     WELL_INJECT                      
                 WEL =    11360736.0000                   WEL =       4.0000E-02     WELL_EXTRACT                     
                 RIV =     5055557.7699                   RIV =       1.7799E-02     RIV                              
                RCHA =           0.0000                  RCHA =           0.0000     RCH                              
                 CHD =     4434726.7980                   CHD =       1.5614E-02     CHD                              

           TOTAL OUT =    20851020.5680             TOTAL OUT =       7.3413E-02

            IN - OUT =       -2355.1757              IN - OUT =      -6.3098E-06

 PERCENT DISCREPANCY =          -0.01     PERCENT DISCREPANCY =          -0.01




         TIME SUMMARY AT END OF TIME STEP   10 IN STRESS PERIOD   19
                    SECONDS     MINUTES      HOURS       DAYS        YEARS
                    -----------------------------------------------------------
   TIME STEP LENGTH 1.31490E+06  21915.      365.25      15.219     4.16667E-02
 STRESS PERIOD TIME 1.31490E+07 2.19150E+05  3652.5      152.19     0.41667    
         TOTAL TIME 2.84018E+08 4.73364E+06  78894.      3287.3      9.0000    


end timestep


start timestep kper="20" kstp="1" mode="normal"


 OUTPUT CONTROL FOR STRESS PERIOD 20 IS REPEATED USING SETTINGS FROM A PREVIOUS STRESS PERIOD.

end timestep


start timestep kper="20" kstp="2" mode="normal"


end timestep


start timestep kper="20" kstp="3" mode="normal"


end timestep


start timestep kper="20" kstp="4" mode="normal"


end timestep


start timestep kper="20" kstp="5" mode="normal"


end timestep


start timestep kper="20" kstp="6" mode="normal"


end timestep


start timestep kper="20" kstp="7" mode="normal"


end timestep


start timestep kper="20" kstp="8" mode="normal"


end timestep


start timestep kper="20" kstp="9" mode="normal"


end timestep


start timestep kper="20" kstp="10" mode="normal"


end timestep


start timestep kper="20" kstp="11" mode="normal"


end timestep


start timestep kper="20" kstp="12" mode="normal"


end timestep


start timestep kper="20" kstp="13" mode="normal"


end timestep


start timestep kper="20" kstp="14" mode="normal"



  VOLUME BUDGET FOR ENTIRE MODEL AT END OF TIME STEP   14, STRESS PERIOD  20
  ---------------------------------------------------------------------------------------------------

     CUMULATIVE VOLUME      L**3       RATES FOR THIS TIME STEP      L**3/T          PACKAGE NAME    
     ------------------                 ------------------------                     ----------------

           IN:                                      IN:
           ---                                      ---
                 WEL =    12097080.0000                   WEL =       4.0000E-02     WELL_INJECT                      
                 WEL =           0.0000                   WEL =           0.0000     WELL_EXTRACT                     
                 RIV =     3841692.7028                   RIV =       1.2704E-02     RIV                              
                RCHA =     1196567.2979                  RCHA =       3.9565E-03     RCH                              
                 CHD =     5064648.3168                   CHD =       1.6747E-02     CHD                              

            TOTAL IN =    22199988.3176              TOTAL IN =       7.3407E-02

          OUT:                                     OUT:
          ----                                     ----
                 WEL =           0.0000                   WEL =           0.0000     WELL_INJECT                      
                 WEL =    12097080.0000                   WEL =       4.0000E-02     WELL_EXTRACT                     
[...]


end timestep


start timestep kper="56" kstp="13" mode="normal"


end timestep


start timestep kper="56" kstp="14" mode="normal"



  VOLUME BUDGET FOR ENTIRE MODEL AT END OF TIME STEP   14, STRESS PERIOD  56
  ---------------------------------------------------------------------------------------------------

     CUMULATIVE VOLUME      L**3       RATES FOR THIS TIME STEP      L**3/T          PACKAGE NAME    
     ------------------                 ------------------------                     ----------------

           IN:                                      IN:
           ---                                      ---
                 WEL =    34818552.0000                   WEL =       4.0000E-02     WELL_INJECT                      
                 WEL =           0.0000                   WEL =           0.0000     WELL_EXTRACT                     
                 RIV =    11058400.9407                   RIV =       1.2705E-02     RIV                              
                RCHA =     3444032.8240                  RCHA =       3.9565E-03     RCH                              
                 CHD =    14577665.7200                   CHD =       1.6747E-02     CHD                              

            TOTAL IN =    63898651.4847              TOTAL IN =       7.3409E-02

          OUT:                                     OUT:
          ----                                     ----
                 WEL =           0.0000                   WEL =           0.0000     WELL_INJECT                      
                 WEL =    34818552.0000                   WEL =       4.0000E-02     WELL_EXTRACT                     
                 RIV =    15493300.5836                   RIV =       1.7798E-02     RIV                              
                RCHA =           0.0000                  RCHA =           0.0000     RCH                              
                 CHD =    13591479.3263                   CHD =       1.5614E-02     CHD                              

           TOTAL OUT =    63903331.9098             TOTAL OUT =       7.3412E-02

            IN - OUT =       -4680.4251              IN - OUT =      -2.2575E-06

 PERCENT DISCREPANCY =          -0.01     PERCENT DISCREPANCY =          -0.00




         TIME SUMMARY AT END OF TIME STEP   14 IN STRESS PERIOD   56
                    SECONDS     MINUTES      HOURS       DAYS        YEARS
                    -----------------------------------------------------------
   TIME STEP LENGTH 1.31490E+06  21915.      365.25      15.219     4.16667E-02
 STRESS PERIOD TIME 1.84086E+07 3.06810E+05  5113.5      213.06     0.58333    
         TOTAL TIME 8.70464E+08 1.45077E+07 2.41796E+05  10075.      27.583    


end timestep


start timestep kper="57" kstp="1" mode="normal"


 OUTPUT CONTROL FOR STRESS PERIOD 57 IS REPEATED USING SETTINGS FROM A PREVIOUS STRESS PERIOD.

end timestep


start timestep kper="57" kstp="2" mode="normal"


end timestep


start timestep kper="57" kstp="3" mode="normal"


end timestep


start timestep kper="57" kstp="4" mode="normal"


end timestep


start timestep kper="57" kstp="5" mode="normal"


end timestep


start timestep kper="57" kstp="6" mode="normal"


end timestep


start timestep kper="57" kstp="7" mode="normal"


end timestep


start timestep kper="57" kstp="8" mode="normal"


end timestep


start timestep kper="57" kstp="9" mode="normal"


end timestep


start timestep kper="57" kstp="10" mode="normal"



  VOLUME BUDGET FOR ENTIRE MODEL AT END OF TIME STEP   10, STRESS PERIOD  57
  ---------------------------------------------------------------------------------------------------

     CUMULATIVE VOLUME      L**3       RATES FOR THIS TIME STEP      L**3/T          PACKAGE NAME    
     ------------------                 ------------------------                     ----------------

           IN:                                      IN:
           ---                                      ---
                 WEL =    35344512.0000                   WEL =       4.0000E-02     WELL_INJECT                      
                 WEL =           0.0000                   WEL =           0.0000     WELL_EXTRACT                     
                 RIV =    11225463.4860                   RIV =       1.2705E-02     RIV                              
                RCHA =     3496057.4890                  RCHA =       3.9565E-03     RCH                              
                 CHD =    14797877.0296                   CHD =       1.6747E-02     CHD                              

            TOTAL IN =    64863910.0046              TOTAL IN =       7.3409E-02

          OUT:                                     OUT:
          ----                                     ----
                 WEL =           0.0000                   WEL =           0.0000     WELL_INJECT                      
                 WEL =    35344512.0000                   WEL =       4.0000E-02     WELL_EXTRACT                     
                 RIV =    15727321.2502                   RIV =       1.7798E-02     RIV                              
                RCHA =           0.0000                  RCHA =           0.0000     RCH                              
                 CHD =    13796786.4568                   CHD =       1.5614E-02     CHD                              

           TOTAL OUT =    64868619.7069             TOTAL OUT =       7.3411E-02

            IN - OUT =       -4709.7023              IN - OUT =      -2.2034E-06

 PERCENT DISCREPANCY =          -0.01     PERCENT DISCREPANCY =          -0.00




         TIME SUMMARY AT END OF TIME STEP   10 IN STRESS PERIOD   57
                    SECONDS     MINUTES      HOURS       DAYS        YEARS
                    -----------------------------------------------------------
   TIME STEP LENGTH 1.31490E+06  21915.      365.25      15.219     4.16667E-02
 STRESS PERIOD TIME 1.31490E+07 2.19150E+05  3652.5      152.19     0.41667    
         TOTAL TIME 8.83613E+08 1.47269E+07 2.45448E+05  10227.      28.000    


end timestep


start timestep kper="58" kstp="1" mode="normal"


 OUTPUT CONTROL FOR STRESS PERIOD 58 IS REPEATED USING SETTINGS FROM A PREVIOUS STRESS PERIOD.

end timestep


start timestep kper="58" kstp="2" mode="normal"


end timestep


start timestep kper="58" kstp="3" mode="normal"


end timestep


start timestep kper="58" kstp="4" mode="normal"


end timestep


start timestep kper="58" kstp="5" mode="normal"


end timestep


start timestep kper="58" kstp="6" mode="normal"


end timestep


start timestep kper="58" kstp="7" mode="normal"


end timestep


start timestep kper="58" kstp="8" mode="normal"


end timestep


start timestep kper="58" kstp="9" mode="normal"


end timestep


start timestep kper="58" kstp="10" mode="normal"


end timestep


start timestep kper="58" kstp="11" mode="normal"


end timestep


start timestep kper="58" kstp="12" mode="normal"


end timestep


start timestep kper="58" kstp="13" mode="normal"


end timestep


start timestep kper="58" kstp="14" mode="normal"



  VOLUME BUDGET FOR ENTIRE MODEL AT END OF TIME STEP   14, STRESS PERIOD  58
  ---------------------------------------------------------------------------------------------------

     CUMULATIVE VOLUME      L**3       RATES FOR THIS TIME STEP      L**3/T          PACKAGE NAME    
     ------------------                 ------------------------                     ----------------

           IN:                                      IN:
           ---                                      ---
                 WEL =    36080856.0000                   WEL =       4.0000E-02     WELL_INJECT                      
                 WEL =           0.0000                   WEL =           0.0000     WELL_EXTRACT                     
                 RIV =    11459351.5403                   RIV =       1.2705E-02     RIV                              
                RCHA =     3568892.0199                  RCHA =       3.9565E-03     RCH                              
                 CHD =    15106173.0018                   CHD =       1.6747E-02     CHD                              

            TOTAL IN =    66215272.5621              TOTAL IN =       7.3409E-02

          OUT:                                     OUT:
          ----                                     ----
                 WEL =           0.0000                   WEL =           0.0000     WELL_INJECT                      
                 WEL =    36080856.0000                   WEL =       4.0000E-02     WELL_EXTRACT                     
                 RIV =    16054949.6978                   RIV =       1.7798E-02     RIV                              
                RCHA =           0.0000                  RCHA =           0.0000     RCH                              
                 CHD =    14084216.3766                   CHD =       1.5614E-02     CHD                              

           TOTAL OUT =    66220022.0744             TOTAL OUT =       7.3411E-02

            IN - OUT =       -4749.5123              IN - OUT =      -2.1295E-06

 PERCENT DISCREPANCY =          -0.01     PERCENT DISCREPANCY =          -0.00




         TIME SUMMARY AT END OF TIME STEP   14 IN STRESS PERIOD   58
                    SECONDS     MINUTES      HOURS       DAYS        YEARS
                    -----------------------------------------------------------
   TIME STEP LENGTH 1.31490E+06  21915.      365.25      15.219     4.16667E-02
 STRESS PERIOD TIME 1.84086E+07 3.06810E+05  5113.5      213.06     0.58333    
         TOTAL TIME 9.02021E+08 1.50337E+07 2.50562E+05  10440.      28.583    


end timestep


start timestep kper="59" kstp="1" mode="normal"


 OUTPUT CONTROL FOR STRESS PERIOD 59 IS REPEATED USING SETTINGS FROM A PREVIOUS STRESS PERIOD.

end timestep


start timestep kper="59" kstp="2" mode="normal"


end timestep


start timestep kper="59" kstp="3" mode="normal"


end timestep


start timestep kper="59" kstp="4" mode="normal"


end timestep


start timestep kper="59" kstp="5" mode="normal"


end timestep


start timestep kper="59" kstp="6" mode="normal"


end timestep


start timestep kper="59" kstp="7" mode="normal"


end timestep


start timestep kper="59" kstp="8" mode="normal"


end timestep


start timestep kper="59" kstp="9" mode="normal"


end timestep


start timestep kper="59" kstp="10" mode="normal"



  VOLUME BUDGET FOR ENTIRE MODEL AT END OF TIME STEP   10, STRESS PERIOD  59
  ---------------------------------------------------------------------------------------------------

     CUMULATIVE VOLUME      L**3       RATES FOR THIS TIME STEP      L**3/T          PACKAGE NAME    
     ------------------                 ------------------------                     ----------------

           IN:                                      IN:
           ---                                      ---
                 WEL =    36606816.0000                   WEL =       4.0000E-02     WELL_INJECT                      
                 WEL =           0.0000                   WEL =           0.0000     WELL_EXTRACT                     
                 RIV =    11626414.7786                   RIV =       1.2705E-02     RIV                              
                RCHA =     3620916.6849                  RCHA =       3.9565E-03     RCH                              
                 CHD =    15326384.5073                   CHD =       1.6747E-02     CHD                              

            TOTAL IN =    67180531.9708              TOTAL IN =       7.3409E-02

          OUT:                                     OUT:
          ----                                     ----
                 WEL =           0.0000                   WEL =           0.0000     WELL_INJECT                      
                 WEL =    36606816.0000                   WEL =       4.0000E-02     WELL_EXTRACT                     
                 RIV =    16288969.6789                   RIV =       1.7798E-02     RIV                              
                RCHA =           0.0000                  RCHA =           0.0000     RCH                              
                 CHD =    14289523.4183                   CHD =       1.5614E-02     CHD                              

           TOTAL OUT =    67185309.0972             TOTAL OUT =       7.3411E-02

            IN - OUT =       -4777.1264              IN - OUT =      -2.0781E-06

 PERCENT DISCREPANCY =          -0.01     PERCENT DISCREPANCY =          -0.00




         TIME SUMMARY AT END OF TIME STEP   10 IN STRESS PERIOD   59
                    SECONDS     MINUTES      HOURS       DAYS        YEARS
                    -----------------------------------------------------------
   TIME STEP LENGTH 1.31490E+06  21915.      365.25      15.219     4.16667E-02
 STRESS PERIOD TIME 1.31490E+07 2.19150E+05  3652.5      152.19     0.41667    
         TOTAL TIME 9.15170E+08 1.52528E+07 2.54214E+05  10592.      29.000    


end timestep


start timestep kper="60" kstp="1" mode="normal"


 OUTPUT CONTROL FOR STRESS PERIOD 60 IS REPEATED USING SETTINGS FROM A PREVIOUS STRESS PERIOD.

end timestep


start timestep kper="60" kstp="2" mode="normal"


end timestep


start timestep kper="60" kstp="3" mode="normal"


end timestep


start timestep kper="60" kstp="4" mode="normal"


end timestep


start timestep kper="60" kstp="5" mode="normal"


end timestep


start timestep kper="60" kstp="6" mode="normal"


end timestep


start timestep kper="60" kstp="7" mode="normal"


end timestep


start timestep kper="60" kstp="8" mode="normal"


end timestep


start timestep kper="60" kstp="9" mode="normal"


end timestep


start timestep kper="60" kstp="10" mode="normal"


end timestep


start timestep kper="60" kstp="11" mode="normal"


end timestep


start timestep kper="60" kstp="12" mode="normal"


end timestep


start timestep kper="60" kstp="13" mode="normal"


end timestep


start timestep kper="60" kstp="14" mode="normal"



  VOLUME BUDGET FOR ENTIRE MODEL AT END OF TIME STEP   14, STRESS PERIOD  60
  ---------------------------------------------------------------------------------------------------

     CUMULATIVE VOLUME      L**3       RATES FOR THIS TIME STEP      L**3/T          PACKAGE NAME    
     ------------------                 ------------------------                     ----------------

           IN:                                      IN:
           ---                                      ---
                 WEL =    37343160.0000                   WEL =       4.0000E-02     WELL_INJECT                      
                 WEL =           0.0000                   WEL =           0.0000     WELL_EXTRACT                     
                 RIV =    11860303.7790                   RIV =       1.2705E-02     RIV                              
                RCHA =     3693751.2158                  RCHA =       3.9565E-03     RCH                              
                 CHD =    15634680.7469                   CHD =       1.6747E-02     CHD                              

            TOTAL IN =    68531895.7418              TOTAL IN =       7.3409E-02

          OUT:                                     OUT:
          ----                                     ----
                 WEL =           0.0000                   WEL =           0.0000     WELL_INJECT                      
                 WEL =    37343160.0000                   WEL =       4.0000E-02     WELL_EXTRACT                     
                 RIV =    16616597.1906                   RIV =       1.7798E-02     RIV                              
                RCHA =           0.0000                  RCHA =           0.0000     RCH                              
                 CHD =    14576953.2169                   CHD =       1.5614E-02     CHD                              

           TOTAL OUT =    68536710.4075             TOTAL OUT =       7.3411E-02

            IN - OUT =       -4814.6657              IN - OUT =      -2.0079E-06

 PERCENT DISCREPANCY =          -0.01     PERCENT DISCREPANCY =          -0.00




         TIME SUMMARY AT END OF TIME STEP   14 IN STRESS PERIOD   60
                    SECONDS     MINUTES      HOURS       DAYS        YEARS
                    -----------------------------------------------------------
   TIME STEP LENGTH 1.31490E+06  21915.      365.25      15.219     4.16667E-02
 STRESS PERIOD TIME 1.84086E+07 3.06810E+05  5113.5      213.06     0.58333    
         TOTAL TIME 9.33579E+08 1.55597E+07 2.59328E+05  10805.      29.583    


end timestep


start timestep kper="61" kstp="1" mode="normal"


 OUTPUT CONTROL FOR STRESS PERIOD 61 IS REPEATED USING SETTINGS FROM A PREVIOUS STRESS PERIOD.

end timestep


start timestep kper="61" kstp="2" mode="normal"


end timestep


start timestep kper="61" kstp="3" mode="normal"


end timestep


start timestep kper="61" kstp="4" mode="normal"


end timestep


start timestep kper="61" kstp="5" mode="normal"


end timestep


start timestep kper="61" kstp="6" mode="normal"


end timestep


start timestep kper="61" kstp="7" mode="normal"


end timestep


start timestep kper="61" kstp="8" mode="normal"


end timestep


start timestep kper="61" kstp="9" mode="normal"


end timestep


start timestep kper="61" kstp="10" mode="normal"



  VOLUME BUDGET FOR ENTIRE MODEL AT END OF TIME STEP   10, STRESS PERIOD  61
  ---------------------------------------------------------------------------------------------------

     CUMULATIVE VOLUME      L**3       RATES FOR THIS TIME STEP      L**3/T          PACKAGE NAME    
     ------------------                 ------------------------                     ----------------

           IN:                                      IN:
           ---                                      ---
                 WEL =    37869120.0000                   WEL =       4.0000E-02     WELL_INJECT                      
                 WEL =           0.0000                   WEL =           0.0000     WELL_EXTRACT                     
                 RIV =    12027367.6760                   RIV =       1.2705E-02     RIV                              
                RCHA =     3745775.8808                  RCHA =       3.9565E-03     RCH                              
                 CHD =    15854892.4386                   CHD =       1.6747E-02     CHD                              

            TOTAL IN =    69497155.9955              TOTAL IN =       7.3409E-02

          OUT:                                     OUT:
          ----                                     ----
                 WEL =           0.0000                   WEL =           0.0000     WELL_INJECT                      
                 WEL =    37869120.0000                   WEL =       4.0000E-02     WELL_EXTRACT                     
                 RIV =    16850616.5201                   RIV =       1.7797E-02     RIV                              
                RCHA =           0.0000                  RCHA =           0.0000     RCH                              
                 CHD =    14782260.1743                   CHD =       1.5614E-02     CHD                              

           TOTAL OUT =    69501996.6944             TOTAL OUT =       7.3411E-02

            IN - OUT =       -4840.6989              IN - OUT =      -1.9590E-06

 PERCENT DISCREPANCY =          -0.01     PERCENT DISCREPANCY =          -0.00




         TIME SUMMARY AT END OF TIME STEP   10 IN STRESS PERIOD   61
                    SECONDS     MINUTES      HOURS       DAYS        YEARS
                    -----------------------------------------------------------
   TIME STEP LENGTH 1.31490E+06  21915.      365.25      15.219     4.16667E-02
 STRESS PERIOD TIME 1.31490E+07 2.19150E+05  3652.5      152.19     0.41667    
         TOTAL TIME 9.46728E+08 1.57788E+07 2.62980E+05  10958.      30.000    


end timestep

