                                   MODFLOW 6
                U.S. GEOLOGICAL SURVEY MODULAR HYDROLOGIC MODEL
                          GROUNDWATER FLOW MODEL (GWF)
                  VERSION 6.7.0.dev3 (preliminary) 10/16/2025
                               ***DEVELOP MODE***

   MODFLOW 6 compiled Oct 16 2025 14:05:53 with Intel(R) Fortran Intel(R) 64
   Compiler Classic for applications running on Intel(R) 64, Version 2021.7.0
                             Build 20220726_000000

This software is preliminary or provisional and is subject to 
revision. It is being provided to meet the need for timely best 
science. The software has not received final approval by the U.S. 
Geological Survey (USGS). No warranty, expressed or implied, is made 
by the USGS or the U.S. Government as to the functionality of the 
software and related material nor shall the fact of release 
constitute any such warranty. The software is provided on the 
condition that neither the USGS nor the U.S. Government shall be held 
liable for any damages resulting from the authorized or unauthorized 
use of the software.


As a work of the United States Government, this USGS product is 
in the public domain within the United States. You can copy, 
modify, distribute, and perform the work, even for commercial 
purposes, all without asking permission. Additionally, USGS 
waives copyright and related rights in the work worldwide 
through CC0 1.0 Universal Public Domain Dedication 
(https://creativecommons.org/publicdomain/zero/1.0/).

The following GNU Lesser General Public License (LGPL) libraries
are used in this USGS product:

    SPARSKIT version 2.0
      ilut, luson, and qsplit 
      (https://www-users.cse.umn.edu/~saad/software/SPARSKIT/)

    RCM - Reverse Cuthill McKee Ordering
      (https://people.math.sc.edu/Burkardt/f_src/rcm/rcm.html)

    BLAS - Basic Linear Algebra Subprograms Level 1
      (https://people.math.sc.edu/Burkardt/f_src/blas1_d/blas1_d.html)

    SPARSEKIT - Sparse Matrix Utility Package
      amux, dperm, dvperm, rperm, and cperm
      (https://people.sc.fsu.edu/~jburkardt/f77_src/sparsekit/sparsekit.html)

The following BSD-3 License libraries are used in this USGS product:

    Modern Fortran DAG Library
      Copyright (c) 2018, Jacob Williams
      All rights reserved.
      (https://github.com/jacobwilliams/daglib)

MODFLOW 6 compiler options: -Isrc/libmf6_external.a.p -Isrc/libmf6core.a.p
-Isrc -I../src -warn general -warn truncated_source -stand=f18 -O2 -fpe0
-no-heap-arrays -traceback -diag-disable:7416 -diag-disable:7025
-diag-disable:5268 -module src/libmf6core.a.p
-gen-dep=src/libmf6core.a.p/Utilities_compilerversion.F90.o
-gen-depformat=make -o src/libmf6core.a.p/Utilities_compilerversion.F90.o -c

System command used to initiate simulation:
./mf6

MODFLOW was compiled using uniform precision.

Real Variables
  KIND: 8
  TINY (smallest non-zero value):    2.225074-308
  HUGE (largest value):    1.797693+308
  PRECISION: 15
  SIZE IN BITS: 64

Integer Variables
  KIND: 4
  HUGE (largest value): 2147483647
  SIZE IN BITS: 32

Long Integer Variables
  KIND: 8
  HUGE (largest value): 9223372036854775807
  SIZE IN BITS: 64

Logical Variables
  KIND: 4
  SIZE IN BITS: 32
 
 NAMEFILE OPTIONS:
 END NAMEFILE OPTIONS:

 DISV -- VERTEX GRID DISCRETIZATION PACKAGE, VERSION 1 : 12/23/2015 - INPUT READ FROM MEMPATH: __INPUT__/GWF/DISV                                


 Setting Discretization Options
 End Setting Discretization Options

 Setting Discretization Dimensions
    NLAY = 1
    NCPL = 13417
    NVERT = 26966
 End Setting Discretization Dimensions

 Setting Discretization Griddata
    TOP set from input file
    BOTM set from input file
 End Setting Discretization Griddata

 Discretization Vertex data loaded
 Discretization Cell2d data loaded

 NPF -- NODE PROPERTY FLOW PACKAGE, VERSION 1, 3/30/2015 INPUT READ FROM MEMPATH: __INPUT__/GWF/NPF                                 


 IC -- Initial Conditions Package, Version 8, 3/28/2015 input read from mempath: __INPUT__/GWF/IC                                  


 Setting NPF Options
    Cell-by-cell flow information will be saved to binary file whenever ICBCFL is not zero.
    Specific discharge will be calculated at cell centers and written to DATA-SPDIS in budget file when requested.
    Saturation will be written to DATA-SAT in budget file when requested.
 End Setting NPF Options

 Setting NPF Griddata
    ICELLTYPE set from input file
    K set from input file
    K33 not provided.  Setting K33 = K.
    K22 not provided.  Setting K22 = K.
 End Setting NPF Griddata


 WEL -- WEL PACKAGE, VERSION 8, 2/22/2014 INPUT READ FROM MEMPATH: __INPUT__/GWF/WELL_INJECT                         

 PROCESSING WEL BASE OPTIONS
    FLOWS WILL BE SAVED TO BUDGET FILE SPECIFIED IN OUTPUT CONTROL
 END OF WEL BASE OPTIONS

 PROCESSING WEL OPTIONS
 END OF WEL OPTIONS

 PROCESSING WEL BASE DIMENSIONS
    MAXBOUND =       4
 END OF WEL BASE DIMENSIONS

 WEL -- WEL PACKAGE, VERSION 8, 2/22/2014 INPUT READ FROM MEMPATH: __INPUT__/GWF/WELL_EXTRACT                        

 PROCESSING WEL BASE OPTIONS
    FLOWS WILL BE SAVED TO BUDGET FILE SPECIFIED IN OUTPUT CONTROL
 END OF WEL BASE OPTIONS

 PROCESSING WEL OPTIONS
 END OF WEL OPTIONS

 PROCESSING WEL BASE DIMENSIONS
    MAXBOUND =       4
 END OF WEL BASE DIMENSIONS

 RIV -- RIV PACKAGE, VERSION 8, 2/22/2014 INPUT READ FROM MEMPATH: __INPUT__/GWF/RIV                                 

 PROCESSING RIV BASE OPTIONS
    FLOWS WILL BE SAVED TO BUDGET FILE SPECIFIED IN OUTPUT CONTROL
 END OF RIV BASE OPTIONS

 OPENED gwf.riv.obs
 FILE TYPE:OBS   UNIT 1054   STATUS:OLD                 
 FORMAT:FORMATTED              ACCESS:SEQUENTIAL          
 ACTION:READ                


 PROCESSING RIV OPTIONS
 END OF RIV OPTIONS

 PROCESSING RIV BASE DIMENSIONS
    MAXBOUND =      80
 END OF RIV BASE DIMENSIONS

 RCH -- RCH PACKAGE, VERSION 8, 2/22/2014 INPUT READ FROM MEMPATH: __INPUT__/GWF/RCH                                 

 PROCESSING RCH BASE OPTIONS
    PACKAGE INPUT WILL BE READ AS LAYER ARRAYS.
    FLOWS WILL BE SAVED TO BUDGET FILE SPECIFIED IN OUTPUT CONTROL
 END OF RCH BASE OPTIONS

 PROCESSING RCHA OPTIONS
 END OF RCHA OPTIONS

 CHD -- CHD PACKAGE, VERSION 8, 2/22/2014 INPUT READ FROM MEMPATH: __INPUT__/GWF/CHD                                 

 PROCESSING CHD BASE OPTIONS
    FLOWS WILL BE SAVED TO BUDGET FILE SPECIFIED IN OUTPUT CONTROL
    CHD BOUNDARIES HAVE NAMES IN LAST COLUMN.
 END OF CHD BASE OPTIONS

 PROCESSING CHD BASE DIMENSIONS
    MAXBOUND =      63
 END OF CHD BASE DIMENSIONS
    STRT set from input file

The observation utility is active for "GWF"
 # File generated by Flopy version 3.10.0.dev5 on 10/29/2025 at 13:54:47.

Processing observation options:

Text output number of digits of precision set to: 10


 OPENED gwf.obs_continuous_gwf_heads1.csv.txt
 FILE TYPE:OPEN/CLOSE   UNIT 1059   STATUS:OLD                 
 FORMAT:FORMATTED              ACCESS:SEQUENTIAL          
 ACTION:READ                


 OPENED gwf.obs_continuous_gwf_heads2.csv.txt
 FILE TYPE:OPEN/CLOSE   UNIT 1061   STATUS:OLD                 
 FORMAT:FORMATTED              ACCESS:SEQUENTIAL          
 ACTION:READ                


 OPENED gwf.obs_continuous_gwf_heads_ext.csv.txt
 FILE TYPE:OPEN/CLOSE   UNIT 1063   STATUS:OLD                 
 FORMAT:FORMATTED              ACCESS:SEQUENTIAL          
 ACTION:READ                


 OPENED gwf.obs_continuous_gwf_heads_inj.csv.txt
 FILE TYPE:OPEN/CLOSE   UNIT 1065   STATUS:OLD                 
 FORMAT:FORMATTED              ACCESS:SEQUENTIAL          
 ACTION:READ                

    BINARY GRID INFORMATION WILL BE WRITTEN TO:
      UNIT NUMBER: 1067
      FILE NAME: ./gwf.disv.grb

 OPENED ./gwf.disv.grb
 FILE TYPE:DATA(BINARY)   UNIT 1067   STATUS:REPLACE             
 FORMAT:UNFORMATTED            ACCESS:STREAM              
 ACTION:READWRITE           

      THE LAST TIME STEP WILL BE PRINTED
      THE LAST TIME STEP WILL BE PRINTED
 # File generated by Flopy version 3.10.0.dev5 on 10/29/2025 at 13:54:47.

 PROCESSING OC OPTIONS

    BUDGET INFORMATION WILL BE WRITTEN TO:
      UNIT NUMBER: 1068
      FILE NAME: gwf.bud

 OPENED gwf.bud
 FILE TYPE:DATA(BINARY)   UNIT 1068   STATUS:REPLACE             
 FORMAT:UNFORMATTED            ACCESS:STREAM              
 ACTION:READWRITE           

    HEAD INFORMATION WILL BE WRITTEN TO:
      UNIT NUMBER: 1069
      FILE NAME: gwf.hds

 OPENED gwf.hds
 FILE TYPE:DATA(BINARY)   UNIT 1069   STATUS:REPLACE             
 FORMAT:UNFORMATTED            ACCESS:STREAM              
 ACTION:READWRITE           

 END OF OC OPTIONS

The observation utility is active for "RIV"

Processing observation options:


 # obsname   type ID

start timestep kper="1" kstp="1" mode="normal"


 BEGIN READING OUTPUT CONTROL FOR STRESS PERIOD 1
      THE LAST TIME STEP WILL BE SAVED
      THE LAST TIME STEP WILL BE SAVED

 END READING OUTPUT CONTROL FOR STRESS PERIOD 1
 UBDSV1 SAVING     FLOW-JA-FACE ON UNIT   1068 AT TIME STEP      1, STRESS PERIOD      1
 UBDSV06 SAVING       DATA-SPDIS IN MODEL GWF              PACKAGE NPF             CONNECTED TO MODEL GWF              PACKAGE NPF              ON UNIT   1068 AT TIME STEP      1, STRESS PERIOD      1
 UBDSV06 SAVING         DATA-SAT IN MODEL GWF              PACKAGE NPF             CONNECTED TO MODEL GWF              PACKAGE NPF              ON UNIT   1068 AT TIME STEP      1, STRESS PERIOD      1
 UBDSV06 SAVING              WEL IN MODEL GWF              PACKAGE GWF             CONNECTED TO MODEL GWF              PACKAGE WELL_INJECT      ON UNIT   1068 AT TIME STEP      1, STRESS PERIOD      1
 UBDSV06 SAVING              WEL IN MODEL GWF              PACKAGE GWF             CONNECTED TO MODEL GWF              PACKAGE WELL_EXTRACT     ON UNIT   1068 AT TIME STEP      1, STRESS PERIOD      1
 UBDSV06 SAVING              RIV IN MODEL GWF              PACKAGE GWF             CONNECTED TO MODEL GWF              PACKAGE RIV              ON UNIT   1068 AT TIME STEP      1, STRESS PERIOD      1
 UBDSV06 SAVING             RCHA IN MODEL GWF              PACKAGE GWF             CONNECTED TO MODEL GWF              PACKAGE RCH              ON UNIT   1068 AT TIME STEP      1, STRESS PERIOD      1
 UBDSV06 SAVING              CHD IN MODEL GWF              PACKAGE GWF             CONNECTED TO MODEL GWF              PACKAGE CHD              ON UNIT   1068 AT TIME STEP      1, STRESS PERIOD      1

 HEAD WILL BE SAVED ON UNIT 1069 AT END OF TIME STEP    1, STRESS PERIOD    1


  VOLUME BUDGET FOR ENTIRE MODEL AT END OF TIME STEP    1, STRESS PERIOD   1
  ---------------------------------------------------------------------------------------------------

     CUMULATIVE VOLUME      L**3       RATES FOR THIS TIME STEP      L**3/T          PACKAGE NAME    
     ------------------                 ------------------------                     ----------------

           IN:                                      IN:
           ---                                      ---
                 WEL =           0.0000                   WEL =           0.0000     WELL_INJECT                      
                 WEL =           0.0000                   WEL =           0.0000     WELL_EXTRACT                     
                 RIV =       8.0671E-03                   RIV =       8.0671E-03     RIV                              
                RCHA =       3.9565E-03                  RCHA =       3.9565E-03     RCH                              
                 CHD =       2.0795E-02                   CHD =       2.0795E-02     CHD                              

            TOTAL IN =       3.2818E-02              TOTAL IN =       3.2818E-02

          OUT:                                     OUT:
          ----                                     ----
                 WEL =           0.0000                   WEL =           0.0000     WELL_INJECT                      
                 WEL =           0.0000                   WEL =           0.0000     WELL_EXTRACT                     
                 RIV =       2.1022E-02                   RIV =       2.1022E-02     RIV                              
                RCHA =           0.0000                  RCHA =           0.0000     RCH                              
                 CHD =       1.1795E-02                   CHD =       1.1795E-02     CHD                              

           TOTAL OUT =       3.2817E-02             TOTAL OUT =       3.2817E-02

            IN - OUT =       1.3599E-06              IN - OUT =       1.3599E-06

 PERCENT DISCREPANCY =           0.00     PERCENT DISCREPANCY =           0.00




         TIME SUMMARY AT END OF TIME STEP    1 IN STRESS PERIOD    1
                    SECONDS     MINUTES      HOURS       DAYS        YEARS
                    -----------------------------------------------------------
   TIME STEP LENGTH  1.0000     1.66667E-02 2.77778E-04 1.15741E-05 3.16881E-08
 STRESS PERIOD TIME  1.0000     1.66667E-02 2.77778E-04 1.15741E-05 3.16881E-08
         TOTAL TIME  1.0000     1.66667E-02 2.77778E-04 1.15741E-05 3.16881E-08


end timestep


start timestep kper="2" kstp="1" mode="normal"


 BEGIN READING OUTPUT CONTROL FOR STRESS PERIOD 2
      THE LAST TIME STEP WILL BE SAVED
      THE LAST TIME STEP WILL BE SAVED

 END READING OUTPUT CONTROL FOR STRESS PERIOD 2

end timestep


start timestep kper="2" kstp="2" mode="normal"


end timestep


start timestep kper="2" kstp="3" mode="normal"


end timestep


start timestep kper="2" kstp="4" mode="normal"


end timestep


start timestep kper="2" kstp="5" mode="normal"


end timestep


start timestep kper="2" kstp="6" mode="normal"


end timestep


start timestep kper="2" kstp="7" mode="normal"


end timestep


start timestep kper="2" kstp="8" mode="normal"


end timestep


start timestep kper="2" kstp="9" mode="normal"


end timestep


start timestep kper="2" kstp="10" mode="normal"


end timestep


start timestep kper="2" kstp="11" mode="normal"


end timestep


start timestep kper="2" kstp="12" mode="normal"


end timestep


start timestep kper="2" kstp="13" mode="normal"


end timestep


start timestep kper="2" kstp="14" mode="normal"

 UBDSV1 SAVING     FLOW-JA-FACE ON UNIT   1068 AT TIME STEP     14, STRESS PERIOD      2
 UBDSV06 SAVING       DATA-SPDIS IN MODEL GWF              PACKAGE NPF             CONNECTED TO MODEL GWF              PACKAGE NPF              ON UNIT   1068 AT TIME STEP     14, STRESS PERIOD      2
 UBDSV06 SAVING         DATA-SAT IN MODEL GWF              PACKAGE NPF             CONNECTED TO MODEL GWF              PACKAGE NPF              ON UNIT   1068 AT TIME STEP     14, STRESS PERIOD      2
 UBDSV06 SAVING              WEL IN MODEL GWF              PACKAGE GWF             CONNECTED TO MODEL GWF              PACKAGE WELL_INJECT      ON UNIT   1068 AT TIME STEP     14, STRESS PERIOD      2
 UBDSV06 SAVING              WEL IN MODEL GWF              PACKAGE GWF             CONNECTED TO MODEL GWF              PACKAGE WELL_EXTRACT     ON UNIT   1068 AT TIME STEP     14, STRESS PERIOD      2
 UBDSV06 SAVING              RIV IN MODEL GWF              PACKAGE GWF             CONNECTED TO MODEL GWF              PACKAGE RIV              ON UNIT   1068 AT TIME STEP     14, STRESS PERIOD      2
 UBDSV06 SAVING             RCHA IN MODEL GWF              PACKAGE GWF             CONNECTED TO MODEL GWF              PACKAGE RCH              ON UNIT   1068 AT TIME STEP     14, STRESS PERIOD      2
 UBDSV06 SAVING              CHD IN MODEL GWF              PACKAGE GWF             CONNECTED TO MODEL GWF              PACKAGE CHD              ON UNIT   1068 AT TIME STEP     14, STRESS PERIOD      2

 HEAD WILL BE SAVED ON UNIT 1069 AT END OF TIME STEP   14, STRESS PERIOD    2


  VOLUME BUDGET FOR ENTIRE MODEL AT END OF TIME STEP   14, STRESS PERIOD   2
  ---------------------------------------------------------------------------------------------------

     CUMULATIVE VOLUME      L**3       RATES FOR THIS TIME STEP      L**3/T          PACKAGE NAME    
     ------------------                 ------------------------                     ----------------

           IN:                                      IN:
           ---                                      ---
                 WEL =      736344.0000                   WEL =       4.0000E-02     WELL_INJECT                      
                 WEL =           0.0000                   WEL =           0.0000     WELL_EXTRACT                     
                 RIV =      158420.4390                   RIV =       8.6057E-03     RIV                              
                RCHA =       72834.5349                  RCHA =       3.9565E-03     RCH                              
                 CHD =      404178.2716                   CHD =       2.1956E-02     CHD                              

            TOTAL IN =     1371777.2456              TOTAL IN =       7.4518E-02

          OUT:                                     OUT:
          ----                                     ----
                 WEL =           0.0000                   WEL =           0.0000     WELL_INJECT                      
                 WEL =      736344.0000                   WEL =       4.0000E-02     WELL_EXTRACT                     
                 RIV =      413427.2982                   RIV =       2.2458E-02     RIV                              
                RCHA =           0.0000                  RCHA =           0.0000     RCH                              
                 CHD =      222038.6882                   CHD =       1.2062E-02     CHD                              

           TOTAL OUT =     1371809.9864             TOTAL OUT =       7.4520E-02

            IN - OUT =         -32.7409              IN - OUT =      -1.9638E-06

 PERCENT DISCREPANCY =          -0.00     PERCENT DISCREPANCY =          -0.00




         TIME SUMMARY AT END OF TIME STEP   14 IN STRESS PERIOD    2
                    SECONDS     MINUTES      HOURS       DAYS        YEARS
                    -----------------------------------------------------------
   TIME STEP LENGTH 1.31490E+06  21915.      365.25      15.219     4.16667E-02
 STRESS PERIOD TIME 1.84086E+07 3.06810E+05  5113.5      213.06     0.58333    
         TOTAL TIME 1.84086E+07 3.06810E+05  5113.5      213.06     0.58333    


end timestep


start timestep kper="3" kstp="1" mode="normal"


 BEGIN READING OUTPUT CONTROL FOR STRESS PERIOD 3

 END READING OUTPUT CONTROL FOR STRESS PERIOD 3

end timestep


start timestep kper="3" kstp="2" mode="normal"


end timestep


start timestep kper="3" kstp="3" mode="normal"


end timestep


start timestep kper="3" kstp="4" mode="normal"


end timestep


start timestep kper="3" kstp="5" mode="normal"


end timestep


start timestep kper="3" kstp="6" mode="normal"


end timestep


start timestep kper="3" kstp="7" mode="normal"


end timestep


start timestep kper="3" kstp="8" mode="normal"


end timestep


start timestep kper="3" kstp="9" mode="normal"


end timestep


start timestep kper="3" kstp="10" mode="normal"



  VOLUME BUDGET FOR ENTIRE MODEL AT END OF TIME STEP   10, STRESS PERIOD   3
  ---------------------------------------------------------------------------------------------------

     CUMULATIVE VOLUME      L**3       RATES FOR THIS TIME STEP      L**3/T          PACKAGE NAME    
     ------------------                 ------------------------                     ----------------

           IN:                                      IN:
           ---                                      ---
                 WEL =     1262304.0000                   WEL =       4.0000E-02     WELL_INJECT                      
                 WEL =           0.0000                   WEL =           0.0000     WELL_EXTRACT                     
                 RIV =      271577.0083                   RIV =       8.6057E-03     RIV                              
                RCHA =      124859.1999                  RCHA =       3.9565E-03     RCH                              
                 CHD =      692876.5484                   CHD =       2.1956E-02     CHD                              

            TOTAL IN =     2351616.7565              TOTAL IN =       7.4518E-02

          OUT:                                     OUT:
          ----                                     ----
                 WEL =           0.0000                   WEL =           0.0000     WELL_INJECT                      
                 WEL =     1262304.0000                   WEL =       4.0000E-02     WELL_EXTRACT                     
                 RIV =      708734.8926                   RIV =       2.2459E-02     RIV                              
                RCHA =           0.0000                  RCHA =           0.0000     RCH                              
                 CHD =      380637.7944                   CHD =       1.2062E-02     CHD                              

           TOTAL OUT =     2351676.6870             TOTAL OUT =       7.4520E-02

            IN - OUT =         -59.9305              IN - OUT =      -2.1368E-06

 PERCENT DISCREPANCY =          -0.00     PERCENT DISCREPANCY =          -0.00




         TIME SUMMARY AT END OF TIME STEP   10 IN STRESS PERIOD    3
                    SECONDS     MINUTES      HOURS       DAYS        YEARS
                    -----------------------------------------------------------
   TIME STEP LENGTH 1.31490E+06  21915.      365.25      15.219     4.16667E-02
 STRESS PERIOD TIME 1.31490E+07 2.19150E+05  3652.5      152.19     0.41667    
         TOTAL TIME 3.15576E+07 5.25960E+05  8766.0      365.25      1.0000    


end timestep


start timestep kper="4" kstp="1" mode="normal"


 END OF FILE DETECTED IN OUTPUT CONTROL.
 CURRENT OUTPUT CONTROL SETTINGS WILL BE 
 REPEATED UNTIL THE END OF THE SIMULATION.

 OUTPUT CONTROL FOR STRESS PERIOD 4 IS REPEATED USING SETTINGS FROM A PREVIOUS STRESS PERIOD.

end timestep


start timestep kper="4" kstp="2" mode="normal"


end timestep


start timestep kper="4" kstp="3" mode="normal"


end timestep


start timestep kper="4" kstp="4" mode="normal"


end timestep


start timestep kper="4" kstp="5" mode="normal"


end timestep


start timestep kper="4" kstp="6" mode="normal"


end timestep


start timestep kper="4" kstp="7" mode="normal"


end timestep


start timestep kper="4" kstp="8" mode="normal"


end timestep


start timestep kper="4" kstp="9" mode="normal"


end timestep


start timestep kper="4" kstp="10" mode="normal"


end timestep


start timestep kper="4" kstp="11" mode="normal"


end timestep


start timestep kper="4" kstp="12" mode="normal"


end timestep


start timestep kper="4" kstp="13" mode="normal"


end timestep


start timestep kper="4" kstp="14" mode="normal"



  VOLUME BUDGET FOR ENTIRE MODEL AT END OF TIME STEP   14, STRESS PERIOD   4
  ---------------------------------------------------------------------------------------------------

     CUMULATIVE VOLUME      L**3       RATES FOR THIS TIME STEP      L**3/T          PACKAGE NAME    
     ------------------                 ------------------------                     ----------------

           IN:                                      IN:
           ---                                      ---
                 WEL =     1998648.0000                   WEL =       4.0000E-02     WELL_INJECT                      
                 WEL =           0.0000                   WEL =           0.0000     WELL_EXTRACT                     
                 RIV =      429995.5338                   RIV =       8.6057E-03     RIV                              
                RCHA =      197693.7308                  RCHA =       3.9565E-03     RCH                              
                 CHD =     1097053.8106                   CHD =       2.1956E-02     CHD                              

            TOTAL IN =     3723391.0752              TOTAL IN =       7.4518E-02

          OUT:                                     OUT:
          ----                                     ----
                 WEL =           0.0000                   WEL =           0.0000     WELL_INJECT                      
                 WEL =     1998648.0000                   WEL =       4.0000E-02     WELL_EXTRACT                     
                 RIV =     1122167.1667                   RIV =       2.2459E-02     RIV                              
                RCHA =           0.0000                  RCHA =           0.0000     RCH                              
                 CHD =      602676.5716                   CHD =       1.2062E-02     CHD                              

           TOTAL OUT =     3723491.7384             TOTAL OUT =       7.4520E-02

            IN - OUT =        -100.6632              IN - OUT =      -2.2610E-06

 PERCENT DISCREPANCY =          -0.00     PERCENT DISCREPANCY =          -0.00




         TIME SUMMARY AT END OF TIME STEP   14 IN STRESS PERIOD    4
                    SECONDS     MINUTES      HOURS       DAYS        YEARS
                    -----------------------------------------------------------
   TIME STEP LENGTH 1.31490E+06  21915.      365.25      15.219     4.16667E-02
 STRESS PERIOD TIME 1.84086E+07 3.06810E+05  5113.5      213.06     0.58333    
         TOTAL TIME 4.99662E+07 8.32770E+05  13880.      578.31      1.5833    


end timestep


start timestep kper="5" kstp="1" mode="normal"


 OUTPUT CONTROL FOR STRESS PERIOD 5 IS REPEATED USING SETTINGS FROM A PREVIOUS STRESS PERIOD.

end timestep


start timestep kper="5" kstp="2" mode="normal"


end timestep


start timestep kper="5" kstp="3" mode="normal"


end timestep


start timestep kper="5" kstp="4" mode="normal"


end timestep


start timestep kper="5" kstp="5" mode="normal"


end timestep


start timestep kper="5" kstp="6" mode="normal"


end timestep


start timestep kper="5" kstp="7" mode="normal"


end timestep


start timestep kper="5" kstp="8" mode="normal"


end timestep


start timestep kper="5" kstp="9" mode="normal"


end timestep


start timestep kper="5" kstp="10" mode="normal"



  VOLUME BUDGET FOR ENTIRE MODEL AT END OF TIME STEP   10, STRESS PERIOD   5
  ---------------------------------------------------------------------------------------------------

     CUMULATIVE VOLUME      L**3       RATES FOR THIS TIME STEP      L**3/T          PACKAGE NAME    
     ------------------                 ------------------------                     ----------------

           IN:                                      IN:
           ---                                      ---
                 WEL =     2524608.0000                   WEL =       4.0000E-02     WELL_INJECT                      
                 WEL =           0.0000                   WEL =           0.0000     WELL_EXTRACT                     
                 RIV =      543151.3592                   RIV =       8.6057E-03     RIV                              
                RCHA =      249718.3957                  RCHA =       3.9565E-03     RCH                              
                 CHD =     1385751.7325                   CHD =       2.1956E-02     CHD                              

            TOTAL IN =     4703229.4875              TOTAL IN =       7.4518E-02

          OUT:                                     OUT:
          ----                                     ----
                 WEL =           0.0000                   WEL =           0.0000     WELL_INJECT                      
                 WEL =     2524608.0000                   WEL =       4.0000E-02     WELL_EXTRACT                     
                 RIV =     1417476.4831                   RIV =       2.2459E-02     RIV                              
                RCHA =           0.0000                  RCHA =           0.0000     RCH                              
                 CHD =      761275.7004                   CHD =       1.2062E-02     CHD                              

           TOTAL OUT =     4703360.1835             TOTAL OUT =       7.4520E-02

            IN - OUT =        -130.6960              IN - OUT =      -2.2974E-06

 PERCENT DISCREPANCY =          -0.00     PERCENT DISCREPANCY =          -0.00




         TIME SUMMARY AT END OF TIME STEP   10 IN STRESS PERIOD    5
                    SECONDS     MINUTES      HOURS       DAYS        YEARS
                    -----------------------------------------------------------
   TIME STEP LENGTH 1.31490E+06  21915.      365.25      15.219     4.16667E-02
 STRESS PERIOD TIME 1.31490E+07 2.19150E+05  3652.5      152.19     0.41667    
         TOTAL TIME 6.31152E+07 1.05192E+06  17532.      730.50      2.0000    


end timestep


start timestep kper="6" kstp="1" mode="normal"


 OUTPUT CONTROL FOR STRESS PERIOD 6 IS REPEATED USING SETTINGS FROM A PREVIOUS STRESS PERIOD.

end timestep


start timestep kper="6" kstp="2" mode="normal"


end timestep


start timestep kper="6" kstp="3" mode="normal"


end timestep


start timestep kper="6" kstp="4" mode="normal"


end timestep


start timestep kper="6" kstp="5" mode="normal"


end timestep


start timestep kper="6" kstp="6" mode="normal"


end timestep


start timestep kper="6" kstp="7" mode="normal"


end timestep


start timestep kper="6" kstp="8" mode="normal"


end timestep


start timestep kper="6" kstp="9" mode="normal"


end timestep


start timestep kper="6" kstp="10" mode="normal"


end timestep


start timestep kper="6" kstp="11" mode="normal"


end timestep


start timestep kper="6" kstp="12" mode="normal"


end timestep


start timestep kper="6" kstp="13" mode="normal"


end timestep


start timestep kper="6" kstp="14" mode="normal"



  VOLUME BUDGET FOR ENTIRE MODEL AT END OF TIME STEP   14, STRESS PERIOD   6
  ---------------------------------------------------------------------------------------------------

     CUMULATIVE VOLUME      L**3       RATES FOR THIS TIME STEP      L**3/T          PACKAGE NAME    
     ------------------                 ------------------------                     ----------------

           IN:                                      IN:
           ---                                      ---
                 WEL =     3260952.0000                   WEL =       4.0000E-02     WELL_INJECT                      
                 WEL =           0.0000                   WEL =           0.0000     WELL_EXTRACT                     
                 RIV =      701569.3610                   RIV =       8.6057E-03     RIV                              
                RCHA =      322552.9267                  RCHA =       3.9565E-03     RCH                              
                 CHD =     1789928.7502                   CHD =       2.1956E-02     CHD                              

            TOTAL IN =     6075003.0379              TOTAL IN =       7.4518E-02

          OUT:                                     OUT:
          ----                                     ----
                 WEL =           0.0000                   WEL =           0.0000     WELL_INJECT                      
                 WEL =     3260952.0000                   WEL =       4.0000E-02     WELL_EXTRACT                     
                 RIV =     1830909.6824                   RIV =       2.2459E-02     RIV                              
                RCHA =           0.0000                  RCHA =           0.0000     RCH                              
                 CHD =      983314.4684                   CHD =       1.2062E-02     CHD                              

           TOTAL OUT =     6075176.1507             TOTAL OUT =       7.4520E-02

            IN - OUT =        -173.1128              IN - OUT =      -2.3035E-06

 PERCENT DISCREPANCY =          -0.00     PERCENT DISCREPANCY =          -0.00




         TIME SUMMARY AT END OF TIME STEP   14 IN STRESS PERIOD    6
                    SECONDS     MINUTES      HOURS       DAYS        YEARS
                    -----------------------------------------------------------
   TIME STEP LENGTH 1.31490E+06  21915.      365.25      15.219     4.16667E-02
 STRESS PERIOD TIME 1.84086E+07 3.06810E+05  5113.5      213.06     0.58333    
         TOTAL TIME 8.15238E+07 1.35873E+06  22646.      943.56      2.5833    


end timestep


start timestep kper="7" kstp="1" mode="normal"


 OUTPUT CONTROL FOR STRESS PERIOD 7 IS REPEATED USING SETTINGS FROM A PREVIOUS STRESS PERIOD.

end timestep


start timestep kper="7" kstp="2" mode="normal"


end timestep


start timestep kper="7" kstp="3" mode="normal"


end timestep


start timestep kper="7" kstp="4" mode="normal"


end timestep


start timestep kper="7" kstp="5" mode="normal"


end timestep


start timestep kper="7" kstp="6" mode="normal"


end timestep


start timestep kper="7" kstp="7" mode="normal"


end timestep


start timestep kper="7" kstp="8" mode="normal"


end timestep


start timestep kper="7" kstp="9" mode="normal"


end timestep


start timestep kper="7" kstp="10" mode="normal"



  VOLUME BUDGET FOR ENTIRE MODEL AT END OF TIME STEP   10, STRESS PERIOD   7
  ---------------------------------------------------------------------------------------------------

     CUMULATIVE VOLUME      L**3       RATES FOR THIS TIME STEP      L**3/T          PACKAGE NAME    
     ------------------                 ------------------------                     ----------------

           IN:                                      IN:
           ---                                      ---
                 WEL =     3786912.0000                   WEL =       4.0000E-02     WELL_INJECT                      
                 WEL =           0.0000                   WEL =           0.0000     WELL_EXTRACT                     
                 RIV =      814725.0571                   RIV =       8.6057E-03     RIV                              
                RCHA =      374577.5916                  RCHA =       3.9565E-03     RCH                              
                 CHD =     2078626.6058                   CHD =       2.1956E-02     CHD                              

            TOTAL IN =     7054841.2546              TOTAL IN =       7.4518E-02

          OUT:                                     OUT:
          ----                                     ----
                 WEL =           0.0000                   WEL =           0.0000     WELL_INJECT                      
                 WEL =     3786912.0000                   WEL =       4.0000E-02     WELL_EXTRACT                     
                 RIV =     2126218.9731                   RIV =       2.2459E-02     RIV                              
                RCHA =           0.0000                  RCHA =           0.0000     RCH                              
                 CHD =     1141913.5744                   CHD =       1.2062E-02     CHD                              

           TOTAL OUT =     7055044.5476             TOTAL OUT =       7.4520E-02

            IN - OUT =        -203.2930              IN - OUT =      -2.2867E-06

 PERCENT DISCREPANCY =          -0.00     PERCENT DISCREPANCY =          -0.00




         TIME SUMMARY AT END OF TIME STEP   10 IN STRESS PERIOD    7
                    SECONDS     MINUTES      HOURS       DAYS        YEARS
                    -----------------------------------------------------------
   TIME STEP LENGTH 1.31490E+06  21915.      365.25      15.219     4.16667E-02
 STRESS PERIOD TIME 1.31490E+07 2.19150E+05  3652.5      152.19     0.41667    
         TOTAL TIME 9.46728E+07 1.57788E+06  26298.      1095.8      3.0000    


end timestep


start timestep kper="8" kstp="1" mode="normal"


 OUTPUT CONTROL FOR STRESS PERIOD 8 IS REPEATED USING SETTINGS FROM A PREVIOUS STRESS PERIOD.

end timestep


start timestep kper="8" kstp="2" mode="normal"


end timestep


start timestep kper="8" kstp="3" mode="normal"


end timestep


start timestep kper="8" kstp="4" mode="normal"


end timestep


start timestep kper="8" kstp="5" mode="normal"


end timestep


start timestep kper="8" kstp="6" mode="normal"


end timestep


start timestep kper="8" kstp="7" mode="normal"


end timestep


start timestep kper="8" kstp="8" mode="normal"


end timestep


start timestep kper="8" kstp="9" mode="normal"


end timestep


start timestep kper="8" kstp="10" mode="normal"


end timestep


start timestep kper="8" kstp="11" mode="normal"


end timestep


start timestep kper="8" kstp="12" mode="normal"


end timestep


start timestep kper="8" kstp="13" mode="normal"


end timestep


start timestep kper="8" kstp="14" mode="normal"



  VOLUME BUDGET FOR ENTIRE MODEL AT END OF TIME STEP   14, STRESS PERIOD   8
  ---------------------------------------------------------------------------------------------------

     CUMULATIVE VOLUME      L**3       RATES FOR THIS TIME STEP      L**3/T          PACKAGE NAME    
     ------------------                 ------------------------                     ----------------

           IN:                                      IN:
           ---                                      ---
                 WEL =     4523256.0000                   WEL =       4.0000E-02     WELL_INJECT                      
                 WEL =           0.0000                   WEL =           0.0000     WELL_EXTRACT                     
                 RIV =      973143.0971                   RIV =       8.6057E-03     RIV                              
                RCHA =      447412.1226                  RCHA =       3.9565E-03     RCH                              
                 CHD =     2482803.6213                   CHD =       2.1956E-02     CHD                              

            TOTAL IN =     8426614.8410              TOTAL IN =       7.4518E-02

          OUT:                                     OUT:
          ----                                     ----
                 WEL =           0.0000                   WEL =           0.0000     WELL_INJECT                      
                 WEL =     4523256.0000                   WEL =       4.0000E-02     WELL_EXTRACT                     
                 RIV =     2539651.5391                   RIV =       2.2459E-02     RIV                              
                RCHA =           0.0000                  RCHA =           0.0000     RCH                              
                 CHD =     1363952.2992                   CHD =       1.2062E-02     CHD                              

           TOTAL OUT =     8426859.8383             TOTAL OUT =       7.4520E-02

            IN - OUT =        -244.9973              IN - OUT =      -2.2448E-06

 PERCENT DISCREPANCY =          -0.00     PERCENT DISCREPANCY =          -0.00




         TIME SUMMARY AT END OF TIME STEP   14 IN STRESS PERIOD    8
                    SECONDS     MINUTES      HOURS       DAYS        YEARS
                    -----------------------------------------------------------
   TIME STEP LENGTH 1.31490E+06  21915.      365.25      15.219     4.16667E-02
 STRESS PERIOD TIME 1.84086E+07 3.06810E+05  5113.5      213.06     0.58333    
         TOTAL TIME 1.13081E+08 1.88469E+06  31412.      1308.8      3.5833    


end timestep


start timestep kper="9" kstp="1" mode="normal"


 OUTPUT CONTROL FOR STRESS PERIOD 9 IS REPEATED USING SETTINGS FROM A PREVIOUS STRESS PERIOD.

end timestep


start timestep kper="9" kstp="2" mode="normal"


end timestep


start timestep kper="9" kstp="3" mode="normal"


end timestep


start timestep kper="9" kstp="4" mode="normal"


end timestep


start timestep kper="9" kstp="5" mode="normal"


end timestep


start timestep kper="9" kstp="6" mode="normal"


end timestep


start timestep kper="9" kstp="7" mode="normal"


end timestep


start timestep kper="9" kstp="8" mode="normal"


end timestep


start timestep kper="9" kstp="9" mode="normal"


end timestep


start timestep kper="9" kstp="10" mode="normal"



  VOLUME BUDGET FOR ENTIRE MODEL AT END OF TIME STEP   10, STRESS PERIOD   9
  ---------------------------------------------------------------------------------------------------

     CUMULATIVE VOLUME      L**3       RATES FOR THIS TIME STEP      L**3/T          PACKAGE NAME    
     ------------------                 ------------------------                     ----------------

           IN:                                      IN:
           ---                                      ---
                 WEL =     5049216.0000                   WEL =       4.0000E-02     WELL_INJECT                      
                 WEL =           0.0000                   WEL =           0.0000     WELL_EXTRACT                     
                 RIV =     1086298.9257                   RIV =       8.6057E-03     RIV                              
                RCHA =      499436.7875                  RCHA =       3.9565E-03     RCH                              
                 CHD =     2771501.5171                   CHD =       2.1956E-02     CHD                              

            TOTAL IN =     9406453.2303              TOTAL IN =       7.4518E-02

          OUT:                                     OUT:
          ----                                     ----
                 WEL =           0.0000                   WEL =           0.0000     WELL_INJECT                      
                 WEL =     5049216.0000                   WEL =       4.0000E-02     WELL_EXTRACT                     
                 RIV =     2834960.1011                   RIV =       2.2459E-02     RIV                              
                RCHA =           0.0000                  RCHA =           0.0000     RCH                              
                 CHD =     1522551.3702                   CHD =       1.2062E-02     CHD                              

           TOTAL OUT =     9406727.4713             TOTAL OUT =       7.4520E-02

            IN - OUT =        -274.2410              IN - OUT =      -2.2066E-06

 PERCENT DISCREPANCY =          -0.00     PERCENT DISCREPANCY =          -0.00




         TIME SUMMARY AT END OF TIME STEP   10 IN STRESS PERIOD    9
                    SECONDS     MINUTES      HOURS       DAYS        YEARS
                    -----------------------------------------------------------
   TIME STEP LENGTH 1.31490E+06  21915.      365.25      15.219     4.16667E-02
 STRESS PERIOD TIME 1.31490E+07 2.19150E+05  3652.5      152.19     0.41667    
         TOTAL TIME 1.26230E+08 2.10384E+06  35064.      1461.0      4.0000    


end timestep


start timestep kper="10" kstp="1" mode="normal"


 OUTPUT CONTROL FOR STRESS PERIOD 10 IS REPEATED USING SETTINGS FROM A PREVIOUS STRESS PERIOD.

end timestep


start timestep kper="10" kstp="2" mode="normal"


end timestep


start timestep kper="10" kstp="3" mode="normal"


end timestep


start timestep kper="10" kstp="4" mode="normal"


end timestep


start timestep kper="10" kstp="5" mode="normal"


end timestep


start timestep kper="10" kstp="6" mode="normal"


end timestep


start timestep kper="10" kstp="7" mode="normal"


end timestep


start timestep kper="10" kstp="8" mode="normal"


end timestep


start timestep kper="10" kstp="9" mode="normal"


end timestep


start timestep kper="10" kstp="10" mode="normal"


end timestep


start timestep kper="10" kstp="11" mode="normal"


end timestep


start timestep kper="10" kstp="12" mode="normal"


end timestep


start timestep kper="10" kstp="13" mode="normal"


end timestep


start timestep kper="10" kstp="14" mode="normal"



  VOLUME BUDGET FOR ENTIRE MODEL AT END OF TIME STEP   14, STRESS PERIOD  10
  ---------------------------------------------------------------------------------------------------

     CUMULATIVE VOLUME      L**3       RATES FOR THIS TIME STEP      L**3/T          PACKAGE NAME    
     ------------------                 ------------------------                     ----------------

           IN:                                      IN:
           ---                                      ---
                 WEL =     5785560.0000                   WEL =       4.0000E-02     WELL_INJECT                      
                 WEL =           0.0000                   WEL =           0.0000     WELL_EXTRACT                     
                 RIV =     1244717.2452                   RIV =       8.6057E-03     RIV                              
                RCHA =      572271.3185                  RCHA =       3.9565E-03     RCH                              
                 CHD =     3175678.6252                   CHD =       2.1956E-02     CHD                              

            TOTAL IN =    10778227.1888              TOTAL IN =       7.4518E-02

          OUT:                                     OUT:
          ----                                     ----
                 WEL =           0.0000                   WEL =           0.0000     WELL_INJECT                      
                 WEL =     5785560.0000                   WEL =       4.0000E-02     WELL_EXTRACT                     
                 RIV =     3248391.4137                   RIV =       2.2459E-02     RIV                              
                RCHA =           0.0000                  RCHA =           0.0000     RCH                              
                 CHD =     1744590.0436                   CHD =       1.2062E-02     CHD                              

           TOTAL OUT =    10778541.4573             TOTAL OUT =       7.4520E-02

            IN - OUT =        -314.2685              IN - OUT =      -2.1461E-06

 PERCENT DISCREPANCY =          -0.00     PERCENT DISCREPANCY =          -0.00




         TIME SUMMARY AT END OF TIME STEP   14 IN STRESS PERIOD   10
                    SECONDS     MINUTES      HOURS       DAYS        YEARS
                    -----------------------------------------------------------
   TIME STEP LENGTH 1.31490E+06  21915.      365.25      15.219     4.16667E-02
 STRESS PERIOD TIME 1.84086E+07 3.06810E+05  5113.5      213.06     0.58333    
         TOTAL TIME 1.44639E+08 2.41065E+06  40178.      1674.1      4.5833    


end timestep


start timestep kper="11" kstp="1" mode="normal"


 OUTPUT CONTROL FOR STRESS PERIOD 11 IS REPEATED USING SETTINGS FROM A PREVIOUS STRESS PERIOD.

end timestep


start timestep kper="11" kstp="2" mode="normal"


end timestep


start timestep kper="11" kstp="3" mode="normal"


end timestep


start timestep kper="11" kstp="4" mode="normal"


end timestep


start timestep kper="11" kstp="5" mode="normal"


end timestep


start timestep kper="11" kstp="6" mode="normal"


end timestep


start timestep kper="11" kstp="7" mode="normal"


end timestep


start timestep kper="11" kstp="8" mode="normal"


end timestep


start timestep kper="11" kstp="9" mode="normal"


end timestep


start timestep kper="11" kstp="10" mode="normal"



  VOLUME BUDGET FOR ENTIRE MODEL AT END OF TIME STEP   10, STRESS PERIOD  11
  ---------------------------------------------------------------------------------------------------

     CUMULATIVE VOLUME      L**3       RATES FOR THIS TIME STEP      L**3/T          PACKAGE NAME    
     ------------------                 ------------------------                     ----------------

           IN:                                      IN:
           ---                                      ---
                 WEL =     6311520.0000                   WEL =       4.0000E-02     WELL_INJECT                      
                 WEL =           0.0000                   WEL =           0.0000     WELL_EXTRACT                     
                 RIV =     1357873.3176                   RIV =       8.6057E-03     RIV                              
                RCHA =      624295.9834                  RCHA =       3.9565E-03     RCH                              
                 CHD =     3464376.6043                   CHD =       2.1956E-02     CHD                              

            TOTAL IN =    11758065.9053              TOTAL IN =       7.4518E-02

          OUT:                                     OUT:
          ----                                     ----
                 WEL =           0.0000                   WEL =           0.0000     WELL_INJECT                      
                 WEL =     6311520.0000                   WEL =       4.0000E-02     WELL_EXTRACT                     
                 RIV =     3543698.9784                   RIV =       2.2459E-02     RIV                              
                RCHA =           0.0000                  RCHA =           0.0000     RCH                              
                 CHD =     1903189.0775                   CHD =       1.2062E-02     CHD                              

           TOTAL OUT =    11758408.0559             TOTAL OUT =       7.4520E-02

            IN - OUT =        -342.1505              IN - OUT =      -2.0998E-06

 PERCENT DISCREPANCY =          -0.00     PERCENT DISCREPANCY =          -0.00




         TIME SUMMARY AT END OF TIME STEP   10 IN STRESS PERIOD   11
                    SECONDS     MINUTES      HOURS       DAYS        YEARS
                    -----------------------------------------------------------
   TIME STEP LENGTH 1.31490E+06  21915.      365.25      15.219     4.16667E-02
 STRESS PERIOD TIME 1.31490E+07 2.19150E+05  3652.5      152.19     0.41667    
         TOTAL TIME 1.57788E+08 2.62980E+06  43830.      1826.3      5.0000    


end timestep


start timestep kper="12" kstp="1" mode="normal"


 OUTPUT CONTROL FOR STRESS PERIOD 12 IS REPEATED USING SETTINGS FROM A PREVIOUS STRESS PERIOD.

end timestep


start timestep kper="12" kstp="2" mode="normal"


end timestep


start timestep kper="12" kstp="3" mode="normal"


end timestep


start timestep kper="12" kstp="4" mode="normal"


end timestep


start timestep kper="12" kstp="5" mode="normal"


end timestep


start timestep kper="12" kstp="6" mode="normal"


end timestep


start timestep kper="12" kstp="7" mode="normal"


end timestep


start timestep kper="12" kstp="8" mode="normal"


end timestep


start timestep kper="12" kstp="9" mode="normal"


end timestep


start timestep kper="12" kstp="10" mode="normal"


end timestep


start timestep kper="12" kstp="11" mode="normal"


end timestep


start timestep kper="12" kstp="12" mode="normal"


end timestep


start timestep kper="12" kstp="13" mode="normal"


end timestep


start timestep kper="12" kstp="14" mode="normal"



  VOLUME BUDGET FOR ENTIRE MODEL AT END OF TIME STEP   14, STRESS PERIOD  12
  ---------------------------------------------------------------------------------------------------

     CUMULATIVE VOLUME      L**3       RATES FOR THIS TIME STEP      L**3/T          PACKAGE NAME    
     ------------------                 ------------------------                     ----------------

           IN:                                      IN:
           ---                                      ---
                 WEL =     7047864.0000                   WEL =       4.0000E-02     WELL_INJECT                      
                 WEL =           0.0000                   WEL =           0.0000     WELL_EXTRACT                     
                 RIV =     1516292.0163                   RIV =       8.6057E-03     RIV                              
                RCHA =      697130.5144                  RCHA =       3.9565E-03     RCH                              
                 CHD =     3868553.8441                   CHD =       2.1956E-02     CHD                              

            TOTAL IN =    13129840.3747              TOTAL IN =       7.4518E-02

          OUT:                                     OUT:
          ----                                     ----
                 WEL =           0.0000                   WEL =           0.0000     WELL_INJECT                      
                 WEL =     7047864.0000                   WEL =       4.0000E-02     WELL_EXTRACT                     
                 RIV =     3957128.8186                   RIV =       2.2458E-02     RIV                              
                RCHA =           0.0000                  RCHA =           0.0000     RCH                              
                 CHD =     2125227.6996                   CHD =       1.2062E-02     CHD                              

           TOTAL OUT =    13130220.5181             TOTAL OUT =       7.4520E-02

            IN - OUT =        -380.1434              IN - OUT =      -2.0330E-06

 PERCENT DISCREPANCY =          -0.00     PERCENT DISCREPANCY =          -0.00




         TIME SUMMARY AT END OF TIME STEP   14 IN STRESS PERIOD   12
                    SECONDS     MINUTES      HOURS       DAYS        YEARS
                    -----------------------------------------------------------
   TIME STEP LENGTH 1.31490E+06  21915.      365.25      15.219     4.16667E-02
 STRESS PERIOD TIME 1.84086E+07 3.06810E+05  5113.5      213.06     0.58333    
         TOTAL TIME 1.76197E+08 2.93661E+06  48944.      2039.3      5.5833    


end timestep


start timestep kper="13" kstp="1" mode="normal"


 OUTPUT CONTROL FOR STRESS PERIOD 13 IS REPEATED USING SETTINGS FROM A PREVIOUS STRESS PERIOD.

end timestep


start timestep kper="13" kstp="2" mode="normal"


end timestep


start timestep kper="13" kstp="3" mode="normal"


end timestep


start timestep kper="13" kstp="4" mode="normal"


end timestep


start timestep kper="13" kstp="5" mode="normal"


end timestep


start timestep kper="13" kstp="6" mode="normal"


end timestep


start timestep kper="13" kstp="7" mode="normal"


end timestep


start timestep kper="13" kstp="8" mode="normal"


end timestep


start timestep kper="13" kstp="9" mode="normal"


end timestep


start timestep kper="13" kstp="10" mode="normal"



  VOLUME BUDGET FOR ENTIRE MODEL AT END OF TIME STEP   10, STRESS PERIOD  13
  ---------------------------------------------------------------------------------------------------

     CUMULATIVE VOLUME      L**3       RATES FOR THIS TIME STEP      L**3/T          PACKAGE NAME    
     ------------------                 ------------------------                     ----------------

           IN:                                      IN:
           ---                                      ---
                 WEL =     7573824.0000                   WEL =       4.0000E-02     WELL_INJECT                      
                 WEL =           0.0000                   WEL =           0.0000     WELL_EXTRACT                     
                 RIV =     1629448.3764                   RIV =       8.6057E-03     RIV                              
                RCHA =      749155.1793                  RCHA =       3.9565E-03     RCH                              
                 CHD =     4157251.9242                   CHD =       2.1956E-02     CHD                              

            TOTAL IN =    14109679.4799              TOTAL IN =       7.4518E-02

          OUT:                                     OUT:
          ----                                     ----
                 WEL =           0.0000                   WEL =           0.0000     WELL_INJECT                      
                 WEL =     7573824.0000                   WEL =       4.0000E-02     WELL_EXTRACT                     
                 RIV =     4252435.3046                   RIV =       2.2458E-02     RIV                              
                RCHA =           0.0000                  RCHA =           0.0000     RCH                              
                 CHD =     2283826.6977                   CHD =       1.2062E-02     CHD                              

           TOTAL OUT =    14110086.0023             TOTAL OUT =       7.4520E-02

            IN - OUT =        -406.5224              IN - OUT =      -1.9847E-06

 PERCENT DISCREPANCY =          -0.00     PERCENT DISCREPANCY =          -0.00




         TIME SUMMARY AT END OF TIME STEP   10 IN STRESS PERIOD   13
                    SECONDS     MINUTES      HOURS       DAYS        YEARS
                    -----------------------------------------------------------
   TIME STEP LENGTH 1.31490E+06  21915.      365.25      15.219     4.16667E-02
 STRESS PERIOD TIME 1.31490E+07 2.19150E+05  3652.5      152.19     0.41667    
         TOTAL TIME 1.89346E+08 3.15576E+06  52596.      2191.5      6.0000    


end timestep


start timestep kper="14" kstp="1" mode="normal"


 OUTPUT CONTROL FOR STRESS PERIOD 14 IS REPEATED USING SETTINGS FROM A PREVIOUS STRESS PERIOD.

end timestep


start timestep kper="14" kstp="2" mode="normal"


end timestep


start timestep kper="14" kstp="3" mode="normal"


end timestep


start timestep kper="14" kstp="4" mode="normal"


end timestep


start timestep kper="14" kstp="5" mode="normal"


end timestep


start timestep kper="14" kstp="6" mode="normal"


end timestep


start timestep kper="14" kstp="7" mode="normal"


end timestep


start timestep kper="14" kstp="8" mode="normal"


end timestep


start timestep kper="14" kstp="9" mode="normal"


end timestep


start timestep kper="14" kstp="10" mode="normal"


end timestep


start timestep kper="14" kstp="11" mode="normal"


end timestep


start timestep kper="14" kstp="12" mode="normal"


end timestep


start timestep kper="14" kstp="13" mode="normal"


end timestep


start timestep kper="14" kstp="14" mode="normal"



  VOLUME BUDGET FOR ENTIRE MODEL AT END OF TIME STEP   14, STRESS PERIOD  14
  ---------------------------------------------------------------------------------------------------

     CUMULATIVE VOLUME      L**3       RATES FOR THIS TIME STEP      L**3/T          PACKAGE NAME    
     ------------------                 ------------------------                     ----------------

           IN:                                      IN:
           ---                                      ---
                 WEL =     8310168.0000                   WEL =       4.0000E-02     WELL_INJECT                      
                 WEL =           0.0000                   WEL =           0.0000     WELL_EXTRACT                     
                 RIV =     1787867.4903                   RIV =       8.6057E-03     RIV                              
                RCHA =      821989.7103                  RCHA =       3.9565E-03     RCH                              
                 CHD =     4561429.3108                   CHD =       2.1956E-02     CHD                              

            TOTAL IN =    15481454.5114              TOTAL IN =       7.4518E-02

          OUT:                                     OUT:
          ----                                     ----
                 WEL =           0.0000                   WEL =           0.0000     WELL_INJECT                      
                 WEL =     8310168.0000                   WEL =       4.0000E-02     WELL_EXTRACT                     
                 RIV =     4665863.6262                   RIV =       2.2458E-02     RIV                              
                RCHA =           0.0000                  RCHA =           0.0000     RCH                              
                 CHD =     2505865.2713                   CHD =       1.2062E-02     CHD                              

           TOTAL OUT =    15481896.8975             TOTAL OUT =       7.4520E-02

            IN - OUT =        -442.3861              IN - OUT =      -1.9172E-06

 PERCENT DISCREPANCY =          -0.00     PERCENT DISCREPANCY =          -0.00




         TIME SUMMARY AT END OF TIME STEP   14 IN STRESS PERIOD   14
                    SECONDS     MINUTES      HOURS       DAYS        YEARS
                    -----------------------------------------------------------
   TIME STEP LENGTH 1.31490E+06  21915.      365.25      15.219     4.16667E-02
 STRESS PERIOD TIME 1.84086E+07 3.06810E+05  5113.5      213.06     0.58333    
         TOTAL TIME 2.07754E+08 3.46257E+06  57710.      2404.6      6.5833    


end timestep


start timestep kper="15" kstp="1" mode="normal"


 OUTPUT CONTROL FOR STRESS PERIOD 15 IS REPEATED USING SETTINGS FROM A PREVIOUS STRESS PERIOD.

end timestep


start timestep kper="15" kstp="2" mode="normal"


end timestep


start timestep kper="15" kstp="3" mode="normal"


end timestep


start timestep kper="15" kstp="4" mode="normal"


end timestep


start timestep kper="15" kstp="5" mode="normal"


end timestep


start timestep kper="15" kstp="6" mode="normal"


end timestep


start timestep kper="15" kstp="7" mode="normal"


end timestep


start timestep kper="15" kstp="8" mode="normal"


end timestep


start timestep kper="15" kstp="9" mode="normal"


end timestep


start timestep kper="15" kstp="10" mode="normal"



  VOLUME BUDGET FOR ENTIRE MODEL AT END OF TIME STEP   10, STRESS PERIOD  15
  ---------------------------------------------------------------------------------------------------

     CUMULATIVE VOLUME      L**3       RATES FOR THIS TIME STEP      L**3/T          PACKAGE NAME    
     ------------------                 ------------------------                     ----------------

           IN:                                      IN:
           ---                                      ---
                 WEL =     8836128.0000                   WEL =       4.0000E-02     WELL_INJECT                      
                 WEL =           0.0000                   WEL =           0.0000     WELL_EXTRACT                     
                 RIV =     1901024.1511                   RIV =       8.6057E-03     RIV                              
                RCHA =      874014.3752                  RCHA =       3.9565E-03     RCH                              
                 CHD =     4850127.4982                   CHD =       2.1956E-02     CHD                              

            TOTAL IN =    16461294.0245              TOTAL IN =       7.4518E-02

          OUT:                                     OUT:
          ----                                     ----
                 WEL =           0.0000                   WEL =           0.0000     WELL_INJECT                      
                 WEL =     8836128.0000                   WEL =       4.0000E-02     WELL_EXTRACT                     
                 RIV =     4961169.0329                   RIV =       2.2458E-02     RIV                              
                RCHA =           0.0000                  RCHA =           0.0000     RCH                              
                 CHD =     2664464.2360                   CHD =       1.2062E-02     CHD                              

           TOTAL OUT =    16461761.2689             TOTAL OUT =       7.4520E-02

            IN - OUT =        -467.2444              IN - OUT =      -1.8694E-06

 PERCENT DISCREPANCY =          -0.00     PERCENT DISCREPANCY =          -0.00




         TIME SUMMARY AT END OF TIME STEP   10 IN STRESS PERIOD   15
                    SECONDS     MINUTES      HOURS       DAYS        YEARS
                    -----------------------------------------------------------
   TIME STEP LENGTH 1.31490E+06  21915.      365.25      15.219     4.16667E-02
 STRESS PERIOD TIME 1.31490E+07 2.19150E+05  3652.5      152.19     0.41667    
         TOTAL TIME 2.20903E+08 3.68172E+06  61362.      2556.8      7.0000    


end timestep


start timestep kper="16" kstp="1" mode="normal"


 OUTPUT CONTROL FOR STRESS PERIOD 16 IS REPEATED USING SETTINGS FROM A PREVIOUS STRESS PERIOD.

end timestep


start timestep kper="16" kstp="2" mode="normal"


end timestep


start timestep kper="16" kstp="3" mode="normal"


end timestep


start timestep kper="16" kstp="4" mode="normal"


end timestep


start timestep kper="16" kstp="5" mode="normal"


end timestep


start timestep kper="16" kstp="6" mode="normal"


end timestep


start timestep kper="16" kstp="7" mode="normal"


end timestep


start timestep kper="16" kstp="8" mode="normal"


end timestep


start timestep kper="16" kstp="9" mode="normal"


end timestep


start timestep kper="16" kstp="10" mode="normal"


end timestep


start timestep kper="16" kstp="11" mode="normal"


end timestep


start timestep kper="16" kstp="12" mode="normal"


end timestep


start timestep kper="16" kstp="13" mode="normal"


end timestep


start timestep kper="16" kstp="14" mode="normal"



  VOLUME BUDGET FOR ENTIRE MODEL AT END OF TIME STEP   14, STRESS PERIOD  16
  ---------------------------------------------------------------------------------------------------

     CUMULATIVE VOLUME      L**3       RATES FOR THIS TIME STEP      L**3/T          PACKAGE NAME    
     ------------------                 ------------------------                     ----------------

           IN:                                      IN:
           ---                                      ---
                 WEL =     9572472.0000                   WEL =       4.0000E-02     WELL_INJECT                      
                 WEL =           0.0000                   WEL =           0.0000     WELL_EXTRACT                     
                 RIV =     2059443.6864                   RIV =       8.6057E-03     RIV                              
                RCHA =      946848.9062                  RCHA =       3.9565E-03     RCH                              
                 CHD =     5254305.0362                   CHD =       2.1956E-02     CHD                              

            TOTAL IN =    17833069.6287              TOTAL IN =       7.4518E-02

          OUT:                                     OUT:
          ----                                     ----
                 WEL =           0.0000                   WEL =           0.0000     WELL_INJECT                      
                 WEL =     9572472.0000                   WEL =       4.0000E-02     WELL_EXTRACT                     
                 RIV =     5374595.8638                   RIV =       2.2458E-02     RIV                              
                RCHA =           0.0000                  RCHA =           0.0000     RCH                              
                 CHD =     2886502.7644                   CHD =       1.2062E-02     CHD                              

           TOTAL OUT =    17833570.6283             TOTAL OUT =       7.4520E-02

            IN - OUT =        -500.9996              IN - OUT =      -1.8035E-06

 PERCENT DISCREPANCY =          -0.00     PERCENT DISCREPANCY =          -0.00




         TIME SUMMARY AT END OF TIME STEP   14 IN STRESS PERIOD   16
                    SECONDS     MINUTES      HOURS       DAYS        YEARS
                    -----------------------------------------------------------
   TIME STEP LENGTH 1.31490E+06  21915.      365.25      15.219     4.16667E-02
 STRESS PERIOD TIME 1.84086E+07 3.06810E+05  5113.5      213.06     0.58333    
         TOTAL TIME 2.39312E+08 3.98853E+06  66476.      2769.8      7.5833    


end timestep


start timestep kper="17" kstp="1" mode="normal"


 OUTPUT CONTROL FOR STRESS PERIOD 17 IS REPEATED USING SETTINGS FROM A PREVIOUS STRESS PERIOD.

end timestep


start timestep kper="17" kstp="2" mode="normal"


end timestep


start timestep kper="17" kstp="3" mode="normal"


end timestep


start timestep kper="17" kstp="4" mode="normal"


end timestep


start timestep kper="17" kstp="5" mode="normal"


end timestep


start timestep kper="17" kstp="6" mode="normal"


end timestep


start timestep kper="17" kstp="7" mode="normal"


end timestep


start timestep kper="17" kstp="8" mode="normal"


end timestep


start timestep kper="17" kstp="9" mode="normal"


end timestep


start timestep kper="17" kstp="10" mode="normal"



  VOLUME BUDGET FOR ENTIRE MODEL AT END OF TIME STEP   10, STRESS PERIOD  17
  ---------------------------------------------------------------------------------------------------

     CUMULATIVE VOLUME      L**3       RATES FOR THIS TIME STEP      L**3/T          PACKAGE NAME    
     ------------------                 ------------------------                     ----------------

           IN:                                      IN:
           ---                                      ---
                 WEL =    10098432.0000                   WEL =       4.0000E-02     WELL_INJECT                      
                 WEL =           0.0000                   WEL =           0.0000     WELL_EXTRACT                     
                 RIV =     2172600.6458                   RIV =       8.6058E-03     RIV                              
                RCHA =      998873.5711                  RCHA =       3.9565E-03     RCH                              
                 CHD =     5543003.3316                   CHD =       2.1956E-02     CHD                              

            TOTAL IN =    18812909.5486              TOTAL IN =       7.4518E-02

          OUT:                                     OUT:
          ----                                     ----
                 WEL =           0.0000                   WEL =           0.0000     WELL_INJECT                      
                 WEL =    10098432.0000                   WEL =       4.0000E-02     WELL_EXTRACT                     
                 RIV =     5669900.2258                   RIV =       2.2458E-02     RIV                              
                RCHA =           0.0000                  RCHA =           0.0000     RCH                              
                 CHD =     3045101.6981                   CHD =       1.2062E-02     CHD                              

           TOTAL OUT =    18813433.9239             TOTAL OUT =       7.4520E-02

            IN - OUT =        -524.3754              IN - OUT =      -1.7574E-06

 PERCENT DISCREPANCY =          -0.00     PERCENT DISCREPANCY =          -0.00




         TIME SUMMARY AT END OF TIME STEP   10 IN STRESS PERIOD   17
                    SECONDS     MINUTES      HOURS       DAYS        YEARS
                    -----------------------------------------------------------
   TIME STEP LENGTH 1.31490E+06  21915.      365.25      15.219     4.16667E-02
 STRESS PERIOD TIME 1.31490E+07 2.19150E+05  3652.5      152.19     0.41667    
         TOTAL TIME 2.52461E+08 4.20768E+06  70128.      2922.0      8.0000    


end timestep


start timestep kper="18" kstp="1" mode="normal"


 OUTPUT CONTROL FOR STRESS PERIOD 18 IS REPEATED USING SETTINGS FROM A PREVIOUS STRESS PERIOD.

end timestep


start timestep kper="18" kstp="2" mode="normal"


end timestep


start timestep kper="18" kstp="3" mode="normal"


end timestep


start timestep kper="18" kstp="4" mode="normal"


end timestep


start timestep kper="18" kstp="5" mode="normal"


end timestep


start timestep kper="18" kstp="6" mode="normal"


end timestep


start timestep kper="18" kstp="7" mode="normal"


end timestep


start timestep kper="18" kstp="8" mode="normal"


end timestep


start timestep kper="18" kstp="9" mode="normal"


end timestep


start timestep kper="18" kstp="10" mode="normal"


end timestep


start timestep kper="18" kstp="11" mode="normal"


end timestep


start timestep kper="18" kstp="12" mode="normal"


end timestep


start timestep kper="18" kstp="13" mode="normal"


end timestep


start timestep kper="18" kstp="14" mode="normal"



  VOLUME BUDGET FOR ENTIRE MODEL AT END OF TIME STEP   14, STRESS PERIOD  18
  ---------------------------------------------------------------------------------------------------

     CUMULATIVE VOLUME      L**3       RATES FOR THIS TIME STEP      L**3/T          PACKAGE NAME    
     ------------------                 ------------------------                     ----------------

           IN:                                      IN:
           ---                                      ---
                 WEL =    10834776.0000                   WEL =       4.0000E-02     WELL_INJECT                      
                 WEL =           0.0000                   WEL =           0.0000     WELL_EXTRACT                     
                 RIV =     2331020.5944                   RIV =       8.6058E-03     RIV                              
                RCHA =     1071708.1020                  RCHA =       3.9565E-03     RCH                              
                 CHD =     5947181.0201                   CHD =       2.1956E-02     CHD                              

            TOTAL IN =    20184685.7165              TOTAL IN =       7.4518E-02

          OUT:                                     OUT:
          ----                                     ----
                 WEL =           0.0000                   WEL =           0.0000     WELL_INJECT                      
                 WEL =    10834776.0000                   WEL =       4.0000E-02     WELL_EXTRACT                     
                 RIV =     6083325.6261                   RIV =       2.2458E-02     RIV                              
                RCHA =           0.0000                  RCHA =           0.0000     RCH                              
                 CHD =     3267140.1848                   CHD =       1.2062E-02     CHD                              

           TOTAL OUT =    20185241.8109             TOTAL OUT =       7.4520E-02

            IN - OUT =        -556.0944              IN - OUT =      -1.6942E-06

 PERCENT DISCREPANCY =          -0.00     PERCENT DISCREPANCY =          -0.00




         TIME SUMMARY AT END OF TIME STEP   14 IN STRESS PERIOD   18
                    SECONDS     MINUTES      HOURS       DAYS        YEARS
                    -----------------------------------------------------------
   TIME STEP LENGTH 1.31490E+06  21915.      365.25      15.219     4.16667E-02
 STRESS PERIOD TIME 1.84086E+07 3.06810E+05  5113.5      213.06     0.58333    
         TOTAL TIME 2.70869E+08 4.51449E+06  75242.      3135.1      8.5833    


end timestep


start timestep kper="19" kstp="1" mode="normal"


 OUTPUT CONTROL FOR STRESS PERIOD 19 IS REPEATED USING SETTINGS FROM A PREVIOUS STRESS PERIOD.

end timestep


start timestep kper="19" kstp="2" mode="normal"


end timestep


start timestep kper="19" kstp="3" mode="normal"


end timestep


start timestep kper="19" kstp="4" mode="normal"


end timestep


start timestep kper="19" kstp="5" mode="normal"


end timestep


start timestep kper="19" kstp="6" mode="normal"


end timestep


start timestep kper="19" kstp="7" mode="normal"


end timestep


start timestep kper="19" kstp="8" mode="normal"


end timestep


start timestep kper="19" kstp="9" mode="normal"


end timestep


start timestep kper="19" kstp="10" mode="normal"



  VOLUME BUDGET FOR ENTIRE MODEL AT END OF TIME STEP   10, STRESS PERIOD  19
  ---------------------------------------------------------------------------------------------------

     CUMULATIVE VOLUME      L**3       RATES FOR THIS TIME STEP      L**3/T          PACKAGE NAME    
     ------------------                 ------------------------                     ----------------

           IN:                                      IN:
           ---                                      ---
                 WEL =    11360736.0000                   WEL =       4.0000E-02     WELL_INJECT                      
                 WEL =           0.0000                   WEL =           0.0000     WELL_EXTRACT                     
                 RIV =     2444177.8442                   RIV =       8.6058E-03     RIV                              
                RCHA =     1123732.7670                  RCHA =       3.9565E-03     RCH                              
                 CHD =     6235879.4218                   CHD =       2.1956E-02     CHD                              

            TOTAL IN =    21164526.0329              TOTAL IN =       7.4518E-02

          OUT:                                     OUT:
          ----                                     ----
                 WEL =           0.0000                   WEL =           0.0000     WELL_INJECT                      
                 WEL =    11360736.0000                   WEL =       4.0000E-02     WELL_EXTRACT                     
                 RIV =     6378628.9911                   RIV =       2.2458E-02     RIV                              
                RCHA =           0.0000                  RCHA =           0.0000     RCH                              
                 CHD =     3425739.0898                   CHD =       1.2062E-02     CHD                              

           TOTAL OUT =    21165104.0809             TOTAL OUT =       7.4520E-02

            IN - OUT =        -578.0480              IN - OUT =      -1.6502E-06

 PERCENT DISCREPANCY =          -0.00     PERCENT DISCREPANCY =          -0.00




         TIME SUMMARY AT END OF TIME STEP   10 IN STRESS PERIOD   19
                    SECONDS     MINUTES      HOURS       DAYS        YEARS
                    -----------------------------------------------------------
   TIME STEP LENGTH 1.31490E+06  21915.      365.25      15.219     4.16667E-02
 STRESS PERIOD TIME 1.31490E+07 2.19150E+05  3652.5      152.19     0.41667    
         TOTAL TIME 2.84018E+08 4.73364E+06  78894.      3287.3      9.0000    


end timestep


start timestep kper="20" kstp="1" mode="normal"


 OUTPUT CONTROL FOR STRESS PERIOD 20 IS REPEATED USING SETTINGS FROM A PREVIOUS STRESS PERIOD.

end timestep


start timestep kper="20" kstp="2" mode="normal"


end timestep


start timestep kper="20" kstp="3" mode="normal"


end timestep


start timestep kper="20" kstp="4" mode="normal"


end timestep


start timestep kper="20" kstp="5" mode="normal"


end timestep


start timestep kper="20" kstp="6" mode="normal"


end timestep


start timestep kper="20" kstp="7" mode="normal"


end timestep


start timestep kper="20" kstp="8" mode="normal"


end timestep


start timestep kper="20" kstp="9" mode="normal"


end timestep


start timestep kper="20" kstp="10" mode="normal"


end timestep


start timestep kper="20" kstp="11" mode="normal"


end timestep


start timestep kper="20" kstp="12" mode="normal"


end timestep


start timestep kper="20" kstp="13" mode="normal"


end timestep


start timestep kper="20" kstp="14" mode="normal"



  VOLUME BUDGET FOR ENTIRE MODEL AT END OF TIME STEP   14, STRESS PERIOD  20
  ---------------------------------------------------------------------------------------------------

     CUMULATIVE VOLUME      L**3       RATES FOR THIS TIME STEP      L**3/T          PACKAGE NAME    
     ------------------                 ------------------------                     ----------------

           IN:                                      IN:
           ---                                      ---
                 WEL =    12097080.0000                   WEL =       4.0000E-02     WELL_INJECT                      
                 WEL =           0.0000                   WEL =           0.0000     WELL_EXTRACT                     
                 RIV =     2602598.1910                   RIV =       8.6058E-03     RIV                              
                RCHA =     1196567.2979                  RCHA =       3.9565E-03     RCH                              
                 CHD =     6640057.2568                   CHD =       2.1956E-02     CHD                              

            TOTAL IN =    22536302.7458              TOTAL IN =       7.4518E-02

          OUT:                                     OUT:
          ----                                     ----
                 WEL =           0.0000                   WEL =           0.0000     WELL_INJECT                      
                 WEL =    12097080.0000                   WEL =       4.0000E-02     WELL_EXTRACT                     
[...]


end timestep


start timestep kper="56" kstp="13" mode="normal"


end timestep


start timestep kper="56" kstp="14" mode="normal"



  VOLUME BUDGET FOR ENTIRE MODEL AT END OF TIME STEP   14, STRESS PERIOD  56
  ---------------------------------------------------------------------------------------------------

     CUMULATIVE VOLUME      L**3       RATES FOR THIS TIME STEP      L**3/T          PACKAGE NAME    
     ------------------                 ------------------------                     ----------------

           IN:                                      IN:
           ---                                      ---
                 WEL =    34818552.0000                   WEL =       4.0000E-02     WELL_INJECT                      
                 WEL =           0.0000                   WEL =           0.0000     WELL_EXTRACT                     
                 RIV =     7491078.3562                   RIV =       8.6060E-03     RIV                              
                RCHA =     3444032.8240                  RCHA =       3.9565E-03     RCH                              
                 CHD =    19111861.1410                   CHD =       2.1956E-02     CHD                              

            TOTAL IN =    64865524.3212              TOTAL IN =       7.4519E-02

          OUT:                                     OUT:
          ----                                     ----
                 WEL =           0.0000                   WEL =           0.0000     WELL_INJECT                      
                 WEL =    34818552.0000                   WEL =       4.0000E-02     WELL_EXTRACT                     
                 RIV =    19548870.4195                   RIV =       2.2457E-02     RIV                              
                RCHA =           0.0000                  RCHA =           0.0000     RCH                              
                 CHD =    10499242.4040                   CHD =       1.2062E-02     CHD                              

           TOTAL OUT =    64866664.8235             TOTAL OUT =       7.4519E-02

            IN - OUT =       -1140.5023              IN - OUT =      -4.9400E-07

 PERCENT DISCREPANCY =          -0.00     PERCENT DISCREPANCY =          -0.00




         TIME SUMMARY AT END OF TIME STEP   14 IN STRESS PERIOD   56
                    SECONDS     MINUTES      HOURS       DAYS        YEARS
                    -----------------------------------------------------------
   TIME STEP LENGTH 1.31490E+06  21915.      365.25      15.219     4.16667E-02
 STRESS PERIOD TIME 1.84086E+07 3.06810E+05  5113.5      213.06     0.58333    
         TOTAL TIME 8.70464E+08 1.45077E+07 2.41796E+05  10075.      27.583    


end timestep


start timestep kper="57" kstp="1" mode="normal"


 OUTPUT CONTROL FOR STRESS PERIOD 57 IS REPEATED USING SETTINGS FROM A PREVIOUS STRESS PERIOD.

end timestep


start timestep kper="57" kstp="2" mode="normal"


end timestep


start timestep kper="57" kstp="3" mode="normal"


end timestep


start timestep kper="57" kstp="4" mode="normal"


end timestep


start timestep kper="57" kstp="5" mode="normal"


end timestep


start timestep kper="57" kstp="6" mode="normal"


end timestep


start timestep kper="57" kstp="7" mode="normal"


end timestep


start timestep kper="57" kstp="8" mode="normal"


end timestep


start timestep kper="57" kstp="9" mode="normal"


end timestep


start timestep kper="57" kstp="10" mode="normal"



  VOLUME BUDGET FOR ENTIRE MODEL AT END OF TIME STEP   10, STRESS PERIOD  57
  ---------------------------------------------------------------------------------------------------

     CUMULATIVE VOLUME      L**3       RATES FOR THIS TIME STEP      L**3/T          PACKAGE NAME    
     ------------------                 ------------------------                     ----------------

           IN:                                      IN:
           ---                                      ---
                 WEL =    35344512.0000                   WEL =       4.0000E-02     WELL_INJECT                      
                 WEL =           0.0000                   WEL =           0.0000     WELL_EXTRACT                     
                 RIV =     7604238.8721                   RIV =       8.6060E-03     RIV                              
                RCHA =     3496057.4890                  RCHA =       3.9565E-03     RCH                              
                 CHD =    19400560.7871                   CHD =       2.1956E-02     CHD                              

            TOTAL IN =    65845369.1482              TOTAL IN =       7.4519E-02

          OUT:                                     OUT:
          ----                                     ----
                 WEL =           0.0000                   WEL =           0.0000     WELL_INJECT                      
                 WEL =    35344512.0000                   WEL =       4.0000E-02     WELL_EXTRACT                     
                 RIV =    19844163.0296                   RIV =       2.2457E-02     RIV                              
                RCHA =           0.0000                  RCHA =           0.0000     RCH                              
                 CHD =    10657841.0191                   CHD =       1.2062E-02     CHD                              

           TOTAL OUT =    65846516.0487             TOTAL OUT =       7.4519E-02

            IN - OUT =       -1146.9006              IN - OUT =      -4.8074E-07

 PERCENT DISCREPANCY =          -0.00     PERCENT DISCREPANCY =          -0.00




         TIME SUMMARY AT END OF TIME STEP   10 IN STRESS PERIOD   57
                    SECONDS     MINUTES      HOURS       DAYS        YEARS
                    -----------------------------------------------------------
   TIME STEP LENGTH 1.31490E+06  21915.      365.25      15.219     4.16667E-02
 STRESS PERIOD TIME 1.31490E+07 2.19150E+05  3652.5      152.19     0.41667    
         TOTAL TIME 8.83613E+08 1.47269E+07 2.45448E+05  10227.      28.000    


end timestep


start timestep kper="58" kstp="1" mode="normal"


 OUTPUT CONTROL FOR STRESS PERIOD 58 IS REPEATED USING SETTINGS FROM A PREVIOUS STRESS PERIOD.

end timestep


start timestep kper="58" kstp="2" mode="normal"


end timestep


start timestep kper="58" kstp="3" mode="normal"


end timestep


start timestep kper="58" kstp="4" mode="normal"


end timestep


start timestep kper="58" kstp="5" mode="normal"


end timestep


start timestep kper="58" kstp="6" mode="normal"


end timestep


start timestep kper="58" kstp="7" mode="normal"


end timestep


start timestep kper="58" kstp="8" mode="normal"


end timestep


start timestep kper="58" kstp="9" mode="normal"


end timestep


start timestep kper="58" kstp="10" mode="normal"


end timestep


start timestep kper="58" kstp="11" mode="normal"


end timestep


start timestep kper="58" kstp="12" mode="normal"


end timestep


start timestep kper="58" kstp="13" mode="normal"


end timestep


start timestep kper="58" kstp="14" mode="normal"



  VOLUME BUDGET FOR ENTIRE MODEL AT END OF TIME STEP   14, STRESS PERIOD  58
  ---------------------------------------------------------------------------------------------------

     CUMULATIVE VOLUME      L**3       RATES FOR THIS TIME STEP      L**3/T          PACKAGE NAME    
     ------------------                 ------------------------                     ----------------

           IN:                                      IN:
           ---                                      ---
                 WEL =    36080856.0000                   WEL =       4.0000E-02     WELL_INJECT                      
                 WEL =           0.0000                   WEL =           0.0000     WELL_EXTRACT                     
                 RIV =     7762663.6553                   RIV =       8.6060E-03     RIV                              
                RCHA =     3568892.0199                  RCHA =       3.9565E-03     RCH                              
                 CHD =    19804740.3151                   CHD =       2.1956E-02     CHD                              

            TOTAL IN =    67217151.9904              TOTAL IN =       7.4519E-02

          OUT:                                     OUT:
          ----                                     ----
                 WEL =           0.0000                   WEL =           0.0000     WELL_INJECT                      
                 WEL =    36080856.0000                   WEL =       4.0000E-02     WELL_EXTRACT                     
                 RIV =    20257572.4857                   RIV =       2.2457E-02     RIV                              
                RCHA =           0.0000                  RCHA =           0.0000     RCH                              
                 CHD =    10879879.0752                   CHD =       1.2062E-02     CHD                              

           TOTAL OUT =    67218307.5609             TOTAL OUT =       7.4519E-02

            IN - OUT =       -1155.5705              IN - OUT =      -4.6279E-07

 PERCENT DISCREPANCY =          -0.00     PERCENT DISCREPANCY =          -0.00




         TIME SUMMARY AT END OF TIME STEP   14 IN STRESS PERIOD   58
                    SECONDS     MINUTES      HOURS       DAYS        YEARS
                    -----------------------------------------------------------
   TIME STEP LENGTH 1.31490E+06  21915.      365.25      15.219     4.16667E-02
 STRESS PERIOD TIME 1.84086E+07 3.06810E+05  5113.5      213.06     0.58333    
         TOTAL TIME 9.02021E+08 1.50337E+07 2.50562E+05  10440.      28.583    


end timestep


start timestep kper="59" kstp="1" mode="normal"


 OUTPUT CONTROL FOR STRESS PERIOD 59 IS REPEATED USING SETTINGS FROM A PREVIOUS STRESS PERIOD.

end timestep


start timestep kper="59" kstp="2" mode="normal"


end timestep


start timestep kper="59" kstp="3" mode="normal"


end timestep


start timestep kper="59" kstp="4" mode="normal"


end timestep


start timestep kper="59" kstp="5" mode="normal"


end timestep


start timestep kper="59" kstp="6" mode="normal"


end timestep


start timestep kper="59" kstp="7" mode="normal"


end timestep


start timestep kper="59" kstp="8" mode="normal"


end timestep


start timestep kper="59" kstp="9" mode="normal"


end timestep


start timestep kper="59" kstp="10" mode="normal"



  VOLUME BUDGET FOR ENTIRE MODEL AT END OF TIME STEP   10, STRESS PERIOD  59
  ---------------------------------------------------------------------------------------------------

     CUMULATIVE VOLUME      L**3       RATES FOR THIS TIME STEP      L**3/T          PACKAGE NAME    
     ------------------                 ------------------------                     ----------------

           IN:                                      IN:
           ---                                      ---
                 WEL =    36606816.0000                   WEL =       4.0000E-02     WELL_INJECT                      
                 WEL =           0.0000                   WEL =           0.0000     WELL_EXTRACT                     
                 RIV =     7875824.2570                   RIV =       8.6060E-03     RIV                              
                RCHA =     3620916.6849                  RCHA =       3.9565E-03     RCH                              
                 CHD =    20093439.9943                   CHD =       2.1956E-02     CHD                              

            TOTAL IN =    68196996.9362              TOTAL IN =       7.4519E-02

          OUT:                                     OUT:
          ----                                     ----
                 WEL =           0.0000                   WEL =           0.0000     WELL_INJECT                      
                 WEL =    36606816.0000                   WEL =       4.0000E-02     WELL_EXTRACT                     
                 RIV =    20552864.8180                   RIV =       2.2457E-02     RIV                              
                RCHA =           0.0000                  RCHA =           0.0000     RCH                              
                 CHD =    11038477.6830                   CHD =       1.2062E-02     CHD                              

           TOTAL OUT =    68198158.5011             TOTAL OUT =       7.4519E-02

            IN - OUT =       -1161.5649              IN - OUT =      -4.5040E-07

 PERCENT DISCREPANCY =          -0.00     PERCENT DISCREPANCY =          -0.00




         TIME SUMMARY AT END OF TIME STEP   10 IN STRESS PERIOD   59
                    SECONDS     MINUTES      HOURS       DAYS        YEARS
                    -----------------------------------------------------------
   TIME STEP LENGTH 1.31490E+06  21915.      365.25      15.219     4.16667E-02
 STRESS PERIOD TIME 1.31490E+07 2.19150E+05  3652.5      152.19     0.41667    
         TOTAL TIME 9.15170E+08 1.52528E+07 2.54214E+05  10592.      29.000    


end timestep


start timestep kper="60" kstp="1" mode="normal"


 OUTPUT CONTROL FOR STRESS PERIOD 60 IS REPEATED USING SETTINGS FROM A PREVIOUS STRESS PERIOD.

end timestep


start timestep kper="60" kstp="2" mode="normal"


end timestep


start timestep kper="60" kstp="3" mode="normal"


end timestep


start timestep kper="60" kstp="4" mode="normal"


end timestep


start timestep kper="60" kstp="5" mode="normal"


end timestep


start timestep kper="60" kstp="6" mode="normal"


end timestep


start timestep kper="60" kstp="7" mode="normal"


end timestep


start timestep kper="60" kstp="8" mode="normal"


end timestep


start timestep kper="60" kstp="9" mode="normal"


end timestep


start timestep kper="60" kstp="10" mode="normal"


end timestep


start timestep kper="60" kstp="11" mode="normal"


end timestep


start timestep kper="60" kstp="12" mode="normal"


end timestep


start timestep kper="60" kstp="13" mode="normal"


end timestep


start timestep kper="60" kstp="14" mode="normal"



  VOLUME BUDGET FOR ENTIRE MODEL AT END OF TIME STEP   14, STRESS PERIOD  60
  ---------------------------------------------------------------------------------------------------

     CUMULATIVE VOLUME      L**3       RATES FOR THIS TIME STEP      L**3/T          PACKAGE NAME    
     ------------------                 ------------------------                     ----------------

           IN:                                      IN:
           ---                                      ---
                 WEL =    37343160.0000                   WEL =       4.0000E-02     WELL_INJECT                      
                 WEL =           0.0000                   WEL =           0.0000     WELL_EXTRACT                     
                 RIV =     8034249.1562                   RIV =       8.6060E-03     RIV                              
                RCHA =     3693751.2158                  RCHA =       3.9565E-03     RCH                              
                 CHD =    20497619.5672                   CHD =       2.1956E-02     CHD                              

            TOTAL IN =    69568779.9392              TOTAL IN =       7.4519E-02

          OUT:                                     OUT:
          ----                                     ----
                 WEL =           0.0000                   WEL =           0.0000     WELL_INJECT                      
                 WEL =    37343160.0000                   WEL =       4.0000E-02     WELL_EXTRACT                     
                 RIV =    20966273.8983                   RIV =       2.2457E-02     RIV                              
                RCHA =           0.0000                  RCHA =           0.0000     RCH                              
                 CHD =    11260515.7292                   CHD =       1.2062E-02     CHD                              

           TOTAL OUT =    69569949.6275             TOTAL OUT =       7.4519E-02

            IN - OUT =       -1169.6883              IN - OUT =      -4.3362E-07

 PERCENT DISCREPANCY =          -0.00     PERCENT DISCREPANCY =          -0.00




         TIME SUMMARY AT END OF TIME STEP   14 IN STRESS PERIOD   60
                    SECONDS     MINUTES      HOURS       DAYS        YEARS
                    -----------------------------------------------------------
   TIME STEP LENGTH 1.31490E+06  21915.      365.25      15.219     4.16667E-02
 STRESS PERIOD TIME 1.84086E+07 3.06810E+05  5113.5      213.06     0.58333    
         TOTAL TIME 9.33579E+08 1.55597E+07 2.59328E+05  10805.      29.583    


end timestep


start timestep kper="61" kstp="1" mode="normal"


 OUTPUT CONTROL FOR STRESS PERIOD 61 IS REPEATED USING SETTINGS FROM A PREVIOUS STRESS PERIOD.

end timestep


start timestep kper="61" kstp="2" mode="normal"


end timestep


start timestep kper="61" kstp="3" mode="normal"


end timestep


start timestep kper="61" kstp="4" mode="normal"


end timestep


start timestep kper="61" kstp="5" mode="normal"


end timestep


start timestep kper="61" kstp="6" mode="normal"


end timestep


start timestep kper="61" kstp="7" mode="normal"


end timestep


start timestep kper="61" kstp="8" mode="normal"


end timestep


start timestep kper="61" kstp="9" mode="normal"


end timestep


start timestep kper="61" kstp="10" mode="normal"



  VOLUME BUDGET FOR ENTIRE MODEL AT END OF TIME STEP   10, STRESS PERIOD  61
  ---------------------------------------------------------------------------------------------------

     CUMULATIVE VOLUME      L**3       RATES FOR THIS TIME STEP      L**3/T          PACKAGE NAME    
     ------------------                 ------------------------                     ----------------

           IN:                                      IN:
           ---                                      ---
                 WEL =    37869120.0000                   WEL =       4.0000E-02     WELL_INJECT                      
                 WEL =           0.0000                   WEL =           0.0000     WELL_EXTRACT                     
                 RIV =     8147409.8379                   RIV =       8.6060E-03     RIV                              
                RCHA =     3745775.8808                  RCHA =       3.9565E-03     RCH                              
                 CHD =    20786319.2775                   CHD =       2.1956E-02     CHD                              

            TOTAL IN =    70548624.9962              TOTAL IN =       7.4519E-02

          OUT:                                     OUT:
          ----                                     ----
                 WEL =           0.0000                   WEL =           0.0000     WELL_INJECT                      
                 WEL =    37869120.0000                   WEL =       4.0000E-02     WELL_EXTRACT                     
                 RIV =    21261565.9702                   RIV =       2.2457E-02     RIV                              
                RCHA =           0.0000                  RCHA =           0.0000     RCH                              
                 CHD =    11419114.3302                   CHD =       1.2062E-02     CHD                              

           TOTAL OUT =    70549800.3004             TOTAL OUT =       7.4519E-02

            IN - OUT =       -1175.3043              IN - OUT =      -4.2197E-07

 PERCENT DISCREPANCY =          -0.00     PERCENT DISCREPANCY =          -0.00




         TIME SUMMARY AT END OF TIME STEP   10 IN STRESS PERIOD   61
                    SECONDS     MINUTES      HOURS       DAYS        YEARS
                    -----------------------------------------------------------
   TIME STEP LENGTH 1.31490E+06  21915.      365.25      15.219     4.16667E-02
 STRESS PERIOD TIME 1.31490E+07 2.19150E+05  3652.5      152.19     0.41667    
         TOTAL TIME 9.46728E+08 1.57788E+07 2.62980E+05  10958.      30.000    


end timestep

