                                   MODFLOW 6
                U.S. GEOLOGICAL SURVEY MODULAR HYDROLOGIC MODEL
                  VERSION 6.7.0.dev3 (preliminary) 10/16/2025
                               ***DEVELOP MODE***

   MODFLOW 6 compiled Oct 16 2025 14:05:53 with Intel(R) Fortran Intel(R) 64
   Compiler Classic for applications running on Intel(R) 64, Version 2021.7.0
                             Build 20220726_000000

This software is preliminary or provisional and is subject to 
revision. It is being provided to meet the need for timely best 
science. The software has not received final approval by the U.S. 
Geological Survey (USGS). No warranty, expressed or implied, is made 
by the USGS or the U.S. Government as to the functionality of the 
software and related material nor shall the fact of release 
constitute any such warranty. The software is provided on the 
condition that neither the USGS nor the U.S. Government shall be held 
liable for any damages resulting from the authorized or unauthorized 
use of the software.


As a work of the United States Government, this USGS product is 
in the public domain within the United States. You can copy, 
modify, distribute, and perform the work, even for commercial 
purposes, all without asking permission. Additionally, USGS 
waives copyright and related rights in the work worldwide 
through CC0 1.0 Universal Public Domain Dedication 
(https://creativecommons.org/publicdomain/zero/1.0/).

The following GNU Lesser General Public License (LGPL) libraries
are used in this USGS product:

    SPARSKIT version 2.0
      ilut, luson, and qsplit 
      (https://www-users.cse.umn.edu/~saad/software/SPARSKIT/)

    RCM - Reverse Cuthill McKee Ordering
      (https://people.math.sc.edu/Burkardt/f_src/rcm/rcm.html)

    BLAS - Basic Linear Algebra Subprograms Level 1
      (https://people.math.sc.edu/Burkardt/f_src/blas1_d/blas1_d.html)

    SPARSEKIT - Sparse Matrix Utility Package
      amux, dperm, dvperm, rperm, and cperm
      (https://people.sc.fsu.edu/~jburkardt/f77_src/sparsekit/sparsekit.html)

The following BSD-3 License libraries are used in this USGS product:

    Modern Fortran DAG Library
      Copyright (c) 2018, Jacob Williams
      All rights reserved.
      (https://github.com/jacobwilliams/daglib)

MODFLOW 6 compiler options: -Isrc/libmf6_external.a.p -Isrc/libmf6core.a.p
-Isrc -I../src -warn general -warn truncated_source -stand=f18 -O2 -fpe0
-no-heap-arrays -traceback -diag-disable:7416 -diag-disable:7025
-diag-disable:5268 -module src/libmf6core.a.p
-gen-dep=src/libmf6core.a.p/Utilities_compilerversion.F90.o
-gen-depformat=make -o src/libmf6core.a.p/Utilities_compilerversion.F90.o -c

System command used to initiate simulation:
./mf6

MODFLOW was compiled using uniform precision.

Real Variables
  KIND: 8
  TINY (smallest non-zero value):    2.225074-308
  HUGE (largest value):    1.797693+308
  PRECISION: 15
  SIZE IN BITS: 64

Integer Variables
  KIND: 4
  HUGE (largest value): 2147483647
  SIZE IN BITS: 32

Long Integer Variables
  KIND: 8
  HUGE (largest value): 9223372036854775807
  SIZE IN BITS: 64

Logical Variables
  KIND: 4
  SIZE IN BITS: 32
 

 OPENED mfsim.nam
 FILE TYPE:NAM6               UNIT 1001   STATUS:OLD                 
 FORMAT:FORMATTED              ACCESS:SEQUENTIAL          
 ACTION:READ                

 # File generated by Flopy version 3.10.0.dev5 on 10/29/2025 at 13:54:46.

 OPENED mfsim.tdis
 FILE TYPE:TDIS6              UNIT 1002   STATUS:OLD                 
 FORMAT:FORMATTED              ACCESS:SEQUENTIAL          
 ACTION:READ                

 # File generated by Flopy version 3.10.0.dev5 on 10/29/2025 at 13:54:46.

 OPENED gwf.nam
 FILE TYPE:GWF6               UNIT 1003   STATUS:OLD                 
 FORMAT:FORMATTED              ACCESS:SEQUENTIAL          
 ACTION:READ                

 # File generated by Flopy version 3.10.0.dev5 on 10/29/2025 at 13:54:46.

 OPENED ./gwf.disv
 FILE TYPE:DISV6              UNIT 1004   STATUS:OLD                 
 FORMAT:FORMATTED              ACCESS:SEQUENTIAL          
 ACTION:READ                

 # File generated by Flopy version 3.10.0.dev5 on 10/29/2025 at 13:54:47.

 OPENED gwf.disv_vertices.txt
 FILE TYPE:OPEN/CLOSE   UNIT 1007   STATUS:OLD                 
 FORMAT:FORMATTED              ACCESS:SEQUENTIAL          
 ACTION:READ                


 OPENED gwf.disv_cell2d.txt
 FILE TYPE:OPEN/CLOSE   UNIT 1008   STATUS:OLD                 
 FORMAT:FORMATTED              ACCESS:SEQUENTIAL          
 ACTION:READ                


 OPENED ./gwf.npf
 FILE TYPE:NPF6               UNIT 1009   STATUS:OLD                 
 FORMAT:FORMATTED              ACCESS:SEQUENTIAL          
 ACTION:READ                

 # File generated by Flopy version 3.10.0.dev5 on 10/29/2025 at 13:54:47.

 OPENED ./gwf.ic
 FILE TYPE:IC6                UNIT 1012   STATUS:OLD                 
 FORMAT:FORMATTED              ACCESS:SEQUENTIAL          
 ACTION:READ                

 # File generated by Flopy version 3.10.0.dev5 on 10/29/2025 at 13:54:47.

 OPENED ./gwf.oc
 FILE TYPE:OC6       UNIT 1014   STATUS:OLD                 
 FORMAT:FORMATTED              ACCESS:SEQUENTIAL          
 ACTION:READ                


 OPENED ./gwf.obs
 FILE TYPE:OBS6      UNIT 1015   STATUS:OLD                 
 FORMAT:FORMATTED              ACCESS:SEQUENTIAL          
 ACTION:READ                


 OPENED ./gwf.inj.wel
 FILE TYPE:WEL6               UNIT 1017   STATUS:OLD                 
 FORMAT:FORMATTED              ACCESS:SEQUENTIAL          
 ACTION:READ                

 # File generated by Flopy version 3.10.0.dev5 on 10/29/2025 at 13:54:47.
    AUXILIARY  VARIABLE: TEMPERATURE     

 OPENED ./gwf.ext.wel
 FILE TYPE:WEL6               UNIT 1019   STATUS:OLD                 
 FORMAT:FORMATTED              ACCESS:SEQUENTIAL          
 ACTION:READ                

 # File generated by Flopy version 3.10.0.dev5 on 10/29/2025 at 13:54:47.
    AUXILIARY  VARIABLE: TEMPERATURE     

 OPENED ./gwf.riv
 FILE TYPE:RIV6               UNIT 1021   STATUS:OLD                 
 FORMAT:FORMATTED              ACCESS:SEQUENTIAL          
 ACTION:READ                

 # File generated by Flopy version 3.10.0.dev5 on 10/29/2025 at 13:54:47.
    AUXILIARY  VARIABLE: TEMPERATURE     

 OPENED ./gwf.rch
 FILE TYPE:RCH6               UNIT 1023   STATUS:OLD                 
 FORMAT:FORMATTED              ACCESS:SEQUENTIAL          
 ACTION:READ                

 # File generated by Flopy version 3.10.0.dev5 on 10/29/2025 at 13:54:47.
    AUXILIARY  VARIABLE: TEMPERATURE     

 OPENED ./gwf.chd
 FILE TYPE:CHD6               UNIT 1025   STATUS:OLD                 
 FORMAT:FORMATTED              ACCESS:SEQUENTIAL          
 ACTION:READ                

 # File generated by Flopy version 3.10.0.dev5 on 10/29/2025 at 13:54:47.
    AUXILIARY  VARIABLE: TEMPERATURE     

 OPENED gwe.nam
 FILE TYPE:GWE6               UNIT 1026   STATUS:OLD                 
 FORMAT:FORMATTED              ACCESS:SEQUENTIAL          
 ACTION:READ                

 # File generated by Flopy version 3.10.0.dev5 on 10/29/2025 at 13:54:47.
 # FMI6   gwe.fmi       fmi

 OPENED ./gwe.disv
 FILE TYPE:DISV6              UNIT 1027   STATUS:OLD                 
 FORMAT:FORMATTED              ACCESS:SEQUENTIAL          
 ACTION:READ                

 # File generated by Flopy version 3.10.0.dev5 on 10/29/2025 at 13:54:48.

 OPENED gwe.disv_vertices.txt
 FILE TYPE:OPEN/CLOSE   UNIT 1030   STATUS:OLD                 
 FORMAT:FORMATTED              ACCESS:SEQUENTIAL          
 ACTION:READ                


 OPENED gwe.disv_cell2d.txt
 FILE TYPE:OPEN/CLOSE   UNIT 1031   STATUS:OLD                 
 FORMAT:FORMATTED              ACCESS:SEQUENTIAL          
 ACTION:READ                


 OPENED ./gwe.ic
 FILE TYPE:IC6                UNIT 1032   STATUS:OLD                 
 FORMAT:FORMATTED              ACCESS:SEQUENTIAL          
 ACTION:READ                

 # File generated by Flopy version 3.10.0.dev5 on 10/29/2025 at 13:54:48.

 OPENED ./gwe.est
 FILE TYPE:EST6               UNIT 1034   STATUS:OLD                 
 FORMAT:FORMATTED              ACCESS:SEQUENTIAL          
 ACTION:READ                

 # File generated by Flopy version 3.10.0.dev5 on 10/29/2025 at 13:54:48.

 OPENED ./gwe.adv
 FILE TYPE:ADV6               UNIT 1038   STATUS:OLD                 
 FORMAT:FORMATTED              ACCESS:SEQUENTIAL          
 ACTION:READ                

 # File generated by Flopy version 3.10.0.dev5 on 10/29/2025 at 13:54:48.

 OPENED ./gwe.cnd
 FILE TYPE:CND6               UNIT 1039   STATUS:OLD                 
 FORMAT:FORMATTED              ACCESS:SEQUENTIAL          
 ACTION:READ                

 # File generated by Flopy version 3.10.0.dev5 on 10/29/2025 at 13:54:48.

 OPENED ./gwe.ssm
 FILE TYPE:SSM6               UNIT 1044   STATUS:OLD                 
 FORMAT:FORMATTED              ACCESS:SEQUENTIAL          
 ACTION:READ                

 # File generated by Flopy version 3.10.0.dev5 on 10/29/2025 at 13:54:48.

 OPENED gwe.ssm_sources.txt
 FILE TYPE:OPEN/CLOSE   UNIT 1045   STATUS:OLD                 
 FORMAT:FORMATTED              ACCESS:SEQUENTIAL          
 ACTION:READ                


 OPENED gwe.ssm_fileinput.txt
 FILE TYPE:OPEN/CLOSE   UNIT 1046   STATUS:OLD                 
 FORMAT:FORMATTED              ACCESS:SEQUENTIAL          
 ACTION:READ                


 OPENED ./gwe.oc
 FILE TYPE:OC6       UNIT 1047   STATUS:OLD                 
 FORMAT:FORMATTED              ACCESS:SEQUENTIAL          
 ACTION:READ                


 OPENED ./gwe.obs
 FILE TYPE:OBS6      UNIT 1048   STATUS:OLD                 
 FORMAT:FORMATTED              ACCESS:SEQUENTIAL          
 ACTION:READ                


 OPENED mfsim.gwfgwe
 FILE TYPE:GWF6-GWE6          UNIT 1049   STATUS:OLD                 
 FORMAT:FORMATTED              ACCESS:SEQUENTIAL          
 ACTION:READ                

 # File generated by Flopy version 3.10.0.dev5 on 10/29/2025 at 13:54:46.

 READING SIMULATION OPTIONS
    MAXIMUM NUMBER OF ERRORS THAT WILL BE STORED IS 1000
 END OF SIMULATION OPTIONS

 READING SIMULATION TIMING

 TDIS -- TEMPORAL DISCRETIZATION PACKAGE,
 VERSION 1 : 11/13/2014 - INPUT READ FROM MEMPATH: __INPUT__/SIM/TDIS                                
 PROCESSING TDIS OPTIONS
    SIMULATION TIME UNIT IS SECONDS
 END OF TDIS OPTIONS
 PROCESSING TDIS DIMENSIONS
   61 STRESS PERIOD(S) IN SIMULATION
 END OF TDIS DIMENSIONS
 PROCESSING TDIS PERIODDATA


 STRESS PERIOD     LENGTH       TIME STEPS     MULTIPLIER FOR DELT
 ----------------------------------------------------------------------------
        1         1.000000          1                    1.000
        2        1.8408600E+07     14                    1.000
        3        1.3149000E+07     10                    1.000
        4        1.8408600E+07     14                    1.000
        5        1.3149000E+07     10                    1.000
        6        1.8408600E+07     14                    1.000
        7        1.3149000E+07     10                    1.000
        8        1.8408600E+07     14                    1.000
        9        1.3149000E+07     10                    1.000
       10        1.8408600E+07     14                    1.000
       11        1.3149000E+07     10                    1.000
       12        1.8408600E+07     14                    1.000
       13        1.3149000E+07     10                    1.000
       14        1.8408600E+07     14                    1.000
       15        1.3149000E+07     10                    1.000
       16        1.8408600E+07     14                    1.000
       17        1.3149000E+07     10                    1.000
       18        1.8408600E+07     14                    1.000
       19        1.3149000E+07     10                    1.000
       20        1.8408600E+07     14                    1.000
       21        1.3149000E+07     10                    1.000
       22        1.8408600E+07     14                    1.000
       23        1.3149000E+07     10                    1.000
       24        1.8408600E+07     14                    1.000
       25        1.3149000E+07     10                    1.000
       26        1.8408600E+07     14                    1.000
       27        1.3149000E+07     10                    1.000
       28        1.8408600E+07     14                    1.000
       29        1.3149000E+07     10                    1.000
       30        1.8408600E+07     14                    1.000
       31        1.3149000E+07     10                    1.000
       32        1.8408600E+07     14                    1.000
       33        1.3149000E+07     10                    1.000
       34        1.8408600E+07     14                    1.000
       35        1.3149000E+07     10                    1.000
       36        1.8408600E+07     14                    1.000
       37        1.3149000E+07     10                    1.000
       38        1.8408600E+07     14                    1.000
       39        1.3149000E+07     10                    1.000
       40        1.8408600E+07     14                    1.000
       41        1.3149000E+07     10                    1.000
       42        1.8408600E+07     14                    1.000
       43        1.3149000E+07     10                    1.000
       44        1.8408600E+07     14                    1.000
       45        1.3149000E+07     10                    1.000
       46        1.8408600E+07     14                    1.000
       47        1.3149000E+07     10                    1.000
       48        1.8408600E+07     14                    1.000
       49        1.3149000E+07     10                    1.000
       50        1.8408600E+07     14                    1.000
       51        1.3149000E+07     10                    1.000
       52        1.8408600E+07     14                    1.000
       53        1.3149000E+07     10                    1.000
       54        1.8408600E+07     14                    1.000
       55        1.3149000E+07     10                    1.000
       56        1.8408600E+07     14                    1.000
       57        1.3149000E+07     10                    1.000
       58        1.8408600E+07     14                    1.000
       59        1.3149000E+07     10                    1.000
       60        1.8408600E+07     14                    1.000
       61        1.3149000E+07     10                    1.000
 END OF TDIS PERIODDATA
 END OF SIMULATION TIMING

 READING SIMULATION MODELS
    GWF6 model 1 will be created
    GWE6 model 2 will be created
 END OF SIMULATION MODELS

 READING SIMULATION EXCHANGES
    GWF6-GWE6 exchange 1 will be created to connect model 1 with model 2
 END OF SIMULATION EXCHANGES

 READING SOLUTIONGROUP

 Creating solution: SLN_1           

 OPENED gwf.ims
 FILE TYPE:IMS   UNIT 1052   STATUS:OLD                 
 FORMAT:FORMATTED              ACCESS:SEQUENTIAL          
 ACTION:READ                


 Creating solution: SLN_2           

 OPENED gwe.ims
 FILE TYPE:IMS   UNIT 1053   STATUS:OLD                 
 FORMAT:FORMATTED              ACCESS:SEQUENTIAL          
 ACTION:READ                

 END OF SOLUTIONGROUP

PROCESSING MODEL CONNECTIONS
END OF MODEL CONNECTIONS

 OPENED gwf.inj.wel_stress_period_data_2.txt
 FILE TYPE:OPEN/CLOSE   UNIT 1055   STATUS:OLD                 
 FORMAT:FORMATTED              ACCESS:SEQUENTIAL          
 ACTION:READ                


 OPENED gwf.ext.wel_stress_period_data_2.txt
 FILE TYPE:OPEN/CLOSE   UNIT 1056   STATUS:OLD                 
 FORMAT:FORMATTED              ACCESS:SEQUENTIAL          
 ACTION:READ                


 OPENED gwf.riv_stress_period_data_1.txt
 FILE TYPE:OPEN/CLOSE   UNIT 1057   STATUS:OLD                 
 FORMAT:FORMATTED              ACCESS:SEQUENTIAL          
 ACTION:READ                


 OPENED gwf.chd_stress_period_data_1.txt
 FILE TYPE:OPEN/CLOSE   UNIT 1058   STATUS:OLD                 
 FORMAT:FORMATTED              ACCESS:SEQUENTIAL          
 ACTION:READ                


 IMS -- ITERATIVE MODEL SOLUTION PACKAGE, VERSION 6, 4/28/2017
         INPUT READ FROM UNIT 1052
 # File generated by Flopy version 3.10.0.dev5 on 10/29/2025 at 13:54:46.

 PROCESSING IMS OPTIONS
 MODERATE OPTION:
 DEFAULT SOLVER INPUT VALUES REFLECT MODERATELY NONLINEAR MODEL
 END OF IMS OPTIONS

 PROCESSING IMS NONLINEAR
 END OF IMS NONLINEAR DATA
 **UNDER-RELAXATION WILL BE USED***
 

 PROCESSING LINEAR DATA
 END OF LINEAR DATA
 ***IMS LINEAR SOLVER WILL BE USED***

 IMSLINEAR -- UNSTRUCTURED LINEAR SOLUTION PACKAGE, VERSION 8, 04/28/2017
 A symmetric matrix will be solved

 OUTER ITERATION CONVERGENCE CRITERION    (DVCLOSE) =    0.100000E-03
 MAXIMUM NUMBER OF OUTER ITERATIONS        (MXITER) = 200
 SOLVER PRINTOUT INDEX                     (IPRIMS) = 0
 NONLINEAR ITERATION METHOD            (NONLINMETH) = 3
 LINEAR SOLUTION METHOD                   (LINMETH) = 1
 UNDER-RELAXATION WEIGHT REDUCTION FACTOR   (THETA) =    0.900000E+00
 UNDER-RELAXATION WEIGHT INCREASE INCREMENT (KAPPA) =    0.100000E-03
 UNDER-RELAXATION PREVIOUS HISTORY FACTOR   (GAMMA) =    0.000000E+00
 UNDER-RELAXATION MOMENTUM TERM         (AMOMENTUM) =    0.000000E+00

       SOLUTION BY THE        CONJUGATE-GRADIENT       METHOD
 ------------------------------------------------------------------
 MAXIMUM OF 200 CALLS OF SOLUTION ROUTINE
 MAXIMUM OF 50 INTERNAL ITERATIONS PER CALL TO SOLUTION ROUTINE
 LINEAR ACCELERATION METHOD            = CG        
 MATRIX PRECONDITIONING TYPE           = MOD. INCOMPLETE LU  
 MATRIX SCALING APPROACH               = NO SCALING          
 MATRIX REORDERING APPROACH            = ORIGINAL ORDERING        
 NUMBER OF ORTHOGONALIZATIONS          = 0
 HEAD CHANGE CRITERION FOR CLOSURE     =    0.10000E-03
 RESIDUAL CHANGE CRITERION FOR CLOSURE =    0.10000E-01
 RESIDUAL CONVERGENCE OPTION           = 0
 RESIDUAL CONVERGENCE NORM             = INFINITY NORM   
 RELAXATION FACTOR                     =    0.97000E+00




 IMS -- ITERATIVE MODEL SOLUTION PACKAGE, VERSION 6, 4/28/2017
         INPUT READ FROM UNIT 1053
 # File generated by Flopy version 3.10.0.dev5 on 10/29/2025 at 13:54:46.

 PROCESSING IMS OPTIONS
 MODERATE OPTION:
 DEFAULT SOLVER INPUT VALUES REFLECT MODERATELY NONLINEAR MODEL
 END OF IMS OPTIONS

 PROCESSING IMS NONLINEAR
 END OF IMS NONLINEAR DATA
 **UNDER-RELAXATION WILL BE USED***
 

 PROCESSING LINEAR DATA
 END OF LINEAR DATA
 ***IMS LINEAR SOLVER WILL BE USED***

 IMSLINEAR -- UNSTRUCTURED LINEAR SOLUTION PACKAGE, VERSION 8, 04/28/2017
 An asymmetric matrix will be solved

 OUTER ITERATION CONVERGENCE CRITERION    (DVCLOSE) =    0.100000E-05
 MAXIMUM NUMBER OF OUTER ITERATIONS        (MXITER) = 1000
 SOLVER PRINTOUT INDEX                     (IPRIMS) = 0
 NONLINEAR ITERATION METHOD            (NONLINMETH) = 3
 LINEAR SOLUTION METHOD                   (LINMETH) = 1
 UNDER-RELAXATION WEIGHT REDUCTION FACTOR   (THETA) =    0.700000E+00
 UNDER-RELAXATION WEIGHT INCREASE INCREMENT (KAPPA) =    0.800000E-01
 UNDER-RELAXATION PREVIOUS HISTORY FACTOR   (GAMMA) =    0.500000E-01
 UNDER-RELAXATION MOMENTUM TERM         (AMOMENTUM) =    0.000000E+00
 MAXIMUM NUMBER OF BACKTRACKS            (NUMTRACK) = 20
 BACKTRACKING TOLERANCE FACTOR               (BTOL) =    0.200000E+01
 BACKTRACKING REDUCTION FACTOR             (BREDUC) =    0.200000E+00
 BACKTRACKING RESIDUAL LIMIT              (RES_LIM) =    0.500000E-03

       SOLUTION BY THE BICONJUGATE-GRADIENT STABILIZED METHOD
 ------------------------------------------------------------------
 MAXIMUM OF 1000 CALLS OF SOLUTION ROUTINE
 MAXIMUM OF 100 INTERNAL ITERATIONS PER CALL TO SOLUTION ROUTINE
 LINEAR ACCELERATION METHOD            = BCGS      
 MATRIX PRECONDITIONING TYPE           = INCOMPLETE LUT      
 MATRIX SCALING APPROACH               = NO SCALING          
 MATRIX REORDERING APPROACH            = ORIGINAL ORDERING        
 NUMBER OF ORTHOGONALIZATIONS          = 2
 HEAD CHANGE CRITERION FOR CLOSURE     =    0.10000E-05
 RESIDUAL CHANGE CRITERION FOR CLOSURE =    0.10000E-05
 RESIDUAL CONVERGENCE OPTION           = 1
 RESIDUAL CONVERGENCE NORM             = INFINITY NORM S 
 RELAXATION FACTOR                     =    0.00000E+00
 NUMBER OF LEVELS                      =              8
 DROP TOLERANCE                        =    0.10000E-02


 
    Solving:  Stress period:     1    Time step:     1
 
1
 STRESS PERIOD NO. 1, LENGTH =   1.000000    
 ------------------------------------------
 NUMBER OF TIME STEPS = 1
 MULTIPLIER FOR DELT =     1.000
 INITIAL TIME STEP SIZE =   1.000000    
 
    Solving:  Stress period:     2    Time step:     1
 
1
 STRESS PERIOD NO. 2, LENGTH =  0.1840860E+08
 ------------------------------------------
 NUMBER OF TIME STEPS = 14
 MULTIPLIER FOR DELT =     1.000
 INITIAL TIME STEP SIZE =   1314900.    
 
    Solving:  Stress period:     2    Time step:     2
 
 
    Solving:  Stress period:     2    Time step:     3
 
 
    Solving:  Stress period:     2    Time step:     4
 
 
    Solving:  Stress period:     2    Time step:     5
 
 
    Solving:  Stress period:     2    Time step:     6
 
 
    Solving:  Stress period:     2    Time step:     7
 
 
    Solving:  Stress period:     2    Time step:     8
 
 
    Solving:  Stress period:     2    Time step:     9
 
 
    Solving:  Stress period:     2    Time step:    10
 
 
    Solving:  Stress period:     2    Time step:    11
 
 
    Solving:  Stress period:     2    Time step:    12
 
 
    Solving:  Stress period:     2    Time step:    13
 
 
    Solving:  Stress period:     2    Time step:    14
 
 
    Solving:  Stress period:     3    Time step:     1
 
1
 STRESS PERIOD NO. 3, LENGTH =  0.1314900E+08
 ------------------------------------------
 NUMBER OF TIME STEPS = 10
 MULTIPLIER FOR DELT =     1.000
 INITIAL TIME STEP SIZE =   1314900.    
 
    Solving:  Stress period:     3    Time step:     2
 
 
    Solving:  Stress period:     3    Time step:     3
 
 
    Solving:  Stress period:     3    Time step:     4
 
 
    Solving:  Stress period:     3    Time step:     5
 
 
    Solving:  Stress period:     3    Time step:     6
 
 
    Solving:  Stress period:     3    Time step:     7
 
 
    Solving:  Stress period:     3    Time step:     8
 
 
    Solving:  Stress period:     3    Time step:     9
 
 
    Solving:  Stress period:     3    Time step:    10
 
 
    Solving:  Stress period:     4    Time step:     1
 
1
 STRESS PERIOD NO. 4, LENGTH =  0.1840860E+08
 ------------------------------------------
 NUMBER OF TIME STEPS = 14
 MULTIPLIER FOR DELT =     1.000
 INITIAL TIME STEP SIZE =   1314900.    
 
    Solving:  Stress period:     4    Time step:     2
 
 
    Solving:  Stress period:     4    Time step:     3
 
 
    Solving:  Stress period:     4    Time step:     4
 
 
    Solving:  Stress period:     4    Time step:     5
 
 
    Solving:  Stress period:     4    Time step:     6
 
 
    Solving:  Stress period:     4    Time step:     7
 
 
    Solving:  Stress period:     4    Time step:     8
 
 
    Solving:  Stress period:     4    Time step:     9
 
 
    Solving:  Stress period:     4    Time step:    10
 
 
    Solving:  Stress period:     4    Time step:    11
 
 
    Solving:  Stress period:     4    Time step:    12
 
 
    Solving:  Stress period:     4    Time step:    13
 
 
    Solving:  Stress period:     4    Time step:    14
 
 
    Solving:  Stress period:     5    Time step:     1
 
1
 STRESS PERIOD NO. 5, LENGTH =  0.1314900E+08
 ------------------------------------------
 NUMBER OF TIME STEPS = 10
 MULTIPLIER FOR DELT =     1.000
 INITIAL TIME STEP SIZE =   1314900.    
 
    Solving:  Stress period:     5    Time step:     2
 
 
    Solving:  Stress period:     5    Time step:     3
 
 
    Solving:  Stress period:     5    Time step:     4
 
 
    Solving:  Stress period:     5    Time step:     5
 
 
    Solving:  Stress period:     5    Time step:     6
 
 
    Solving:  Stress period:     5    Time step:     7
 
 
    Solving:  Stress period:     5    Time step:     8
 
 
    Solving:  Stress period:     5    Time step:     9
 
 
    Solving:  Stress period:     5    Time step:    10
 
 
    Solving:  Stress period:     6    Time step:     1
 
1
 STRESS PERIOD NO. 6, LENGTH =  0.1840860E+08
 ------------------------------------------
 NUMBER OF TIME STEPS = 14
 MULTIPLIER FOR DELT =     1.000
 INITIAL TIME STEP SIZE =   1314900.    
 
    Solving:  Stress period:     6    Time step:     2
 
 
    Solving:  Stress period:     6    Time step:     3
 
 
    Solving:  Stress period:     6    Time step:     4
 
 
    Solving:  Stress period:     6    Time step:     5
 
 
    Solving:  Stress period:     6    Time step:     6
 
 
    Solving:  Stress period:     6    Time step:     7
 
 
    Solving:  Stress period:     6    Time step:     8
 
 
    Solving:  Stress period:     6    Time step:     9
 
 
    Solving:  Stress period:     6    Time step:    10
 
 
    Solving:  Stress period:     6    Time step:    11
 
 
    Solving:  Stress period:     6    Time step:    12
 
 
    Solving:  Stress period:     6    Time step:    13
 
 
    Solving:  Stress period:     6    Time step:    14
 
 
    Solving:  Stress period:     7    Time step:     1
 
1
 STRESS PERIOD NO. 7, LENGTH =  0.1314900E+08
 ------------------------------------------
 NUMBER OF TIME STEPS = 10
 MULTIPLIER FOR DELT =     1.000
 INITIAL TIME STEP SIZE =   1314900.    
 
    Solving:  Stress period:     7    Time step:     2
 
 
    Solving:  Stress period:     7    Time step:     3
 
 
    Solving:  Stress period:     7    Time step:     4
 
 
    Solving:  Stress period:     7    Time step:     5
 
 
    Solving:  Stress period:     7    Time step:     6
 
 
    Solving:  Stress period:     7    Time step:     7
 
 
    Solving:  Stress period:     7    Time step:     8
 
 
    Solving:  Stress period:     7    Time step:     9
 
 
    Solving:  Stress period:     7    Time step:    10
 
 
    Solving:  Stress period:     8    Time step:     1
 
1
 STRESS PERIOD NO. 8, LENGTH =  0.1840860E+08
 ------------------------------------------
 NUMBER OF TIME STEPS = 14
 MULTIPLIER FOR DELT =     1.000
 INITIAL TIME STEP SIZE =   1314900.    
 
    Solving:  Stress period:     8    Time step:     2
 
 
    Solving:  Stress period:     8    Time step:     3
 
 
    Solving:  Stress period:     8    Time step:     4
 
 
    Solving:  Stress period:     8    Time step:     5
 
 
    Solving:  Stress period:     8    Time step:     6
 
 
    Solving:  Stress period:     8    Time step:     7
 
 
    Solving:  Stress period:     8    Time step:     8
 
 
    Solving:  Stress period:     8    Time step:     9
 
 
    Solving:  Stress period:     8    Time step:    10
 
 
    Solving:  Stress period:     8    Time step:    11
 
 
    Solving:  Stress period:     8    Time step:    12
 
 
    Solving:  Stress period:     8    Time step:    13
 
 
    Solving:  Stress period:     8    Time step:    14
 
 
    Solving:  Stress period:     9    Time step:     1
 
1
 STRESS PERIOD NO. 9, LENGTH =  0.1314900E+08
 ------------------------------------------
 NUMBER OF TIME STEPS = 10
 MULTIPLIER FOR DELT =     1.000
 INITIAL TIME STEP SIZE =   1314900.    
 
    Solving:  Stress period:     9    Time step:     2
 
 
    Solving:  Stress period:     9    Time step:     3
 
 
    Solving:  Stress period:     9    Time step:     4
 
 
    Solving:  Stress period:     9    Time step:     5
 
 
    Solving:  Stress period:     9    Time step:     6
 
 
    Solving:  Stress period:     9    Time step:     7
 
 
    Solving:  Stress period:     9    Time step:     8
 
 
    Solving:  Stress period:     9    Time step:     9
 
 
    Solving:  Stress period:     9    Time step:    10
 
 
    Solving:  Stress period:    10    Time step:     1
 
1
 STRESS PERIOD NO. 10, LENGTH =  0.1840860E+08
 ------------------------------------------
 NUMBER OF TIME STEPS = 14
 MULTIPLIER FOR DELT =     1.000
 INITIAL TIME STEP SIZE =   1314900.    
 
    Solving:  Stress period:    10    Time step:     2
 
 
    Solving:  Stress period:    10    Time step:     3
 
 
    Solving:  Stress period:    10    Time step:     4
 
 
    Solving:  Stress period:    10    Time step:     5
 
 
    Solving:  Stress period:    10    Time step:     6
 
 
    Solving:  Stress period:    10    Time step:     7
 
 
    Solving:  Stress period:    10    Time step:     8
 
 
    Solving:  Stress period:    10    Time step:     9
 
 
    Solving:  Stress period:    10    Time step:    10
 
 
    Solving:  Stress period:    10    Time step:    11
 
 
    Solving:  Stress period:    10    Time step:    12
 
 
    Solving:  Stress period:    10    Time step:    13
 
 
    Solving:  Stress period:    10    Time step:    14
 
 
    Solving:  Stress period:    11    Time step:     1
 
1
 STRESS PERIOD NO. 11, LENGTH =  0.1314900E+08
 ------------------------------------------
 NUMBER OF TIME STEPS = 10
 MULTIPLIER FOR DELT =     1.000
 INITIAL TIME STEP SIZE =   1314900.    
 
    Solving:  Stress period:    11    Time step:     2
 
 
    Solving:  Stress period:    11    Time step:     3
 
 
    Solving:  Stress period:    11    Time step:     4
 
 
    Solving:  Stress period:    11    Time step:     5
 
 
    Solving:  Stress period:    11    Time step:     6
 
 
    Solving:  Stress period:    11    Time step:     7
 
 
    Solving:  Stress period:    11    Time step:     8
 
 
    Solving:  Stress period:    11    Time step:     9
 
 
    Solving:  Stress period:    11    Time step:    10
 
 
    Solving:  Stress period:    12    Time step:     1
 
1
 STRESS PERIOD NO. 12, LENGTH =  0.1840860E+08
 ------------------------------------------
 NUMBER OF TIME STEPS = 14
 MULTIPLIER FOR DELT =     1.000
 INITIAL TIME STEP SIZE =   1314900.    
 
    Solving:  Stress period:    12    Time step:     2
 
 
    Solving:  Stress period:    12    Time step:     3
 
 
    Solving:  Stress period:    12    Time step:     4
 
 
    Solving:  Stress period:    12    Time step:     5
 
 
    Solving:  Stress period:    12    Time step:     6
 
 
    Solving:  Stress period:    12    Time step:     7
 
 
    Solving:  Stress period:    12    Time step:     8
 
 
    Solving:  Stress period:    12    Time step:     9
 
 
    Solving:  Stress period:    12    Time step:    10
 
 
    Solving:  Stress period:    12    Time step:    11
 
 
    Solving:  Stress period:    12    Time step:    12
 
 
    Solving:  Stress period:    12    Time step:    13
 
 
    Solving:  Stress period:    12    Time step:    14
 
 
    Solving:  Stress period:    13    Time step:     1
 
1
 STRESS PERIOD NO. 13, LENGTH =  0.1314900E+08
 ------------------------------------------
 NUMBER OF TIME STEPS = 10
 MULTIPLIER FOR DELT =     1.000
 INITIAL TIME STEP SIZE =   1314900.    
 
    Solving:  Stress period:    13    Time step:     2
 
 
    Solving:  Stress period:    13    Time step:     3
 
 
    Solving:  Stress period:    13    Time step:     4
 
 
    Solving:  Stress period:    13    Time step:     5
 
 
    Solving:  Stress period:    13    Time step:     6
 
 
    Solving:  Stress period:    13    Time step:     7
 
 
    Solving:  Stress period:    13    Time step:     8
 
 
    Solving:  Stress period:    13    Time step:     9
 
 
    Solving:  Stress period:    13    Time step:    10
 
 
    Solving:  Stress period:    14    Time step:     1
 
1
 STRESS PERIOD NO. 14, LENGTH =  0.1840860E+08
 ------------------------------------------
 NUMBER OF TIME STEPS = 14
 MULTIPLIER FOR DELT =     1.000
 INITIAL TIME STEP SIZE =   1314900.    
 
    Solving:  Stress period:    14    Time step:     2
 
 
    Solving:  Stress period:    14    Time step:     3
 
 
    Solving:  Stress period:    14    Time step:     4
 
 
    Solving:  Stress period:    14    Time step:     5
 
 
    Solving:  Stress period:    14    Time step:     6
 
 
    Solving:  Stress period:    14    Time step:     7
 
 
    Solving:  Stress period:    14    Time step:     8
 
 
    Solving:  Stress period:    14    Time step:     9
 
 
    Solving:  Stress period:    14    Time step:    10
 
 
    Solving:  Stress period:    14    Time step:    11
 
 
    Solving:  Stress period:    14    Time step:    12
 
 
    Solving:  Stress period:    14    Time step:    13
 
 
    Solving:  Stress period:    14    Time step:    14
 
 
    Solving:  Stress period:    15    Time step:     1
 
1
 STRESS PERIOD NO. 15, LENGTH =  0.1314900E+08
 ------------------------------------------
 NUMBER OF TIME STEPS = 10
 MULTIPLIER FOR DELT =     1.000
 INITIAL TIME STEP SIZE =   1314900.    
 
    Solving:  Stress period:    15    Time step:     2
 
 
    Solving:  Stress period:    15    Time step:     3
 
 
    Solving:  Stress period:    15    Time step:     4
 
 
    Solving:  Stress period:    15    Time step:     5
 
 
    Solving:  Stress period:    15    Time step:     6
 
 
    Solving:  Stress period:    15    Time step:     7
 
 
    Solving:  Stress period:    15    Time step:     8
 
 
    Solving:  Stress period:    15    Time step:     9
 
 
    Solving:  Stress period:    15    Time step:    10
 
 
    Solving:  Stress period:    16    Time step:     1
 
1
 STRESS PERIOD NO. 16, LENGTH =  0.1840860E+08
 ------------------------------------------
 NUMBER OF TIME STEPS = 14
 MULTIPLIER FOR DELT =     1.000
 INITIAL TIME STEP SIZE =   1314900.    
 
    Solving:  Stress period:    16    Time step:     2
 
 
    Solving:  Stress period:    16    Time step:     3
 
 
    Solving:  Stress period:    16    Time step:     4
 
 
    Solving:  Stress period:    16    Time step:     5
 
 
    Solving:  Stress period:    16    Time step:     6
 
 
    Solving:  Stress period:    16    Time step:     7
 
 
    Solving:  Stress period:    16    Time step:     8
 
 
    Solving:  Stress period:    16    Time step:     9
 
 
    Solving:  Stress period:    16    Time step:    10
 
 
    Solving:  Stress period:    16    Time step:    11
 
 
    Solving:  Stress period:    16    Time step:    12
 
 
    Solving:  Stress period:    16    Time step:    13
 
 
    Solving:  Stress period:    16    Time step:    14
 
 
    Solving:  Stress period:    17    Time step:     1
 
1
 STRESS PERIOD NO. 17, LENGTH =  0.1314900E+08
 ------------------------------------------
 NUMBER OF TIME STEPS = 10
 MULTIPLIER FOR DELT =     1.000
 INITIAL TIME STEP SIZE =   1314900.    
 
    Solving:  Stress period:    17    Time step:     2
 
 
    Solving:  Stress period:    17    Time step:     3
 
 
    Solving:  Stress period:    17    Time step:     4
 
 
    Solving:  Stress period:    17    Time step:     5
 
 
    Solving:  Stress period:    17    Time step:     6
 
 
    Solving:  Stress period:    17    Time step:     7
 
 
    Solving:  Stress period:    17    Time step:     8
 
 
    Solving:  Stress period:    17    Time step:     9
 
 
    Solving:  Stress period:    17    Time step:    10
 
 
    Solving:  Stress period:    18    Time step:     1
 
1
 STRESS PERIOD NO. 18, LENGTH =  0.1840860E+08
 ------------------------------------------
 NUMBER OF TIME STEPS = 14
 MULTIPLIER FOR DELT =     1.000
 INITIAL TIME STEP SIZE =   1314900.    
 
    Solving:  Stress period:    18    Time step:     2
 
 
    Solving:  Stress period:    18    Time step:     3
 
 
    Solving:  Stress period:    18    Time step:     4
 
 
    Solving:  Stress period:    18    Time step:     5
 
 
    Solving:  Stress period:    18    Time step:     6
 
 
    Solving:  Stress period:    18    Time step:     7
 
 
    Solving:  Stress period:    18    Time step:     8
 
 
    Solving:  Stress period:    18    Time step:     9
 
 
    Solving:  Stress period:    18    Time step:    10
 
 
    Solving:  Stress period:    18    Time step:    11
 
 
    Solving:  Stress period:    18    Time step:    12
 
 
    Solving:  Stress period:    18    Time step:    13
 
 
    Solving:  Stress period:    18    Time step:    14
 
 
    Solving:  Stress period:    19    Time step:     1
 
1
 STRESS PERIOD NO. 19, LENGTH =  0.1314900E+08
 ------------------------------------------
 NUMBER OF TIME STEPS = 10
 MULTIPLIER FOR DELT =     1.000
 INITIAL TIME STEP SIZE =   1314900.    
 
    Solving:  Stress period:    19    Time step:     2
 
 
    Solving:  Stress period:    19    Time step:     3
 
 
    Solving:  Stress period:    19    Time step:     4
 
 
    Solving:  Stress period:    19    Time step:     5
 
 
    Solving:  Stress period:    19    Time step:     6
 
 
    Solving:  Stress period:    19    Time step:     7
 
 
    Solving:  Stress period:    19    Time step:     8
 
 
    Solving:  Stress period:    19    Time step:     9
 
 
    Solving:  Stress period:    19    Time step:    10
 
 
    Solving:  Stress period:    20    Time step:     1
 
1
 STRESS PERIOD NO. 20, LENGTH =  0.1840860E+08
 ------------------------------------------
 NUMBER OF TIME STEPS = 14
 MULTIPLIER FOR DELT =     1.000
 INITIAL TIME STEP SIZE =   1314900.    
 
    Solving:  Stress period:    20    Time step:     2
 
 
    Solving:  Stress period:    20    Time step:     3
 
 
    Solving:  Stress period:    20    Time step:     4
 
 
    Solving:  Stress period:    20    Time step:     5
 
 
    Solving:  Stress period:    20    Time step:     6
 
 
    Solving:  Stress period:    20    Time step:     7
 
 
    Solving:  Stress period:    20    Time step:     8
 
 
    Solving:  Stress period:    20    Time step:     9
 
 
    Solving:  Stress period:    20    Time step:    10
 
 
    Solving:  Stress period:    20    Time step:    11
 
 
    Solving:  Stress period:    20    Time step:    12
 
 
    Solving:  Stress period:    20    Time step:    13
 
 
    Solving:  Stress period:    20    Time step:    14
 
 
    Solving:  Stress period:    21    Time step:     1
 
1
 STRESS PERIOD NO. 21, LENGTH =  0.1314900E+08
 ------------------------------------------
 NUMBER OF TIME STEPS = 10
 MULTIPLIER FOR DELT =     1.000
 INITIAL TIME STEP SIZE =   1314900.    
 
    Solving:  Stress period:    21    Time step:     2
 
 
    Solving:  Stress period:    21    Time step:     3
 
 
    Solving:  Stress period:    21    Time step:     4
 
 
    Solving:  Stress period:    21    Time step:     5
 
 
    Solving:  Stress period:    21    Time step:     6
 
 
    Solving:  Stress period:    21    Time step:     7
 
 
    Solving:  Stress period:    21    Time step:     8
 
 
    Solving:  Stress period:    21    Time step:     9
 
 
    Solving:  Stress period:    21    Time step:    10
 
 
    Solving:  Stress period:    22    Time step:     1
 
1
 STRESS PERIOD NO. 22, LENGTH =  0.1840860E+08
 ------------------------------------------
 NUMBER OF TIME STEPS = 14
 MULTIPLIER FOR DELT =     1.000
 INITIAL TIME STEP SIZE =   1314900.    
 
    Solving:  Stress period:    22    Time step:     2
 
 
    Solving:  Stress period:    22    Time step:     3
 
 
    Solving:  Stress period:    22    Time step:     4
 
 
    Solving:  Stress period:    22    Time step:     5
 
 
    Solving:  Stress period:    22    Time step:     6
 
 
    Solving:  Stress period:    22    Time step:     7
 
 
    Solving:  Stress period:    22    Time step:     8
 
 
    Solving:  Stress period:    22    Time step:     9
 
 
    Solving:  Stress period:    22    Time step:    10
 
 
    Solving:  Stress period:    22    Time step:    11
 
 
    Solving:  Stress period:    22    Time step:    12
 
 
    Solving:  Stress period:    22    Time step:    13
 
 
    Solving:  Stress period:    22    Time step:    14
 
 
    Solving:  Stress period:    23    Time step:     1
 
1
 STRESS PERIOD NO. 23, LENGTH =  0.1314900E+08
 ------------------------------------------
 NUMBER OF TIME STEPS = 10
 MULTIPLIER FOR DELT =     1.000
 INITIAL TIME STEP SIZE =   1314900.    
 
    Solving:  Stress period:    23    Time step:     2
 
 
    Solving:  Stress period:    23    Time step:     3
 
 
    Solving:  Stress period:    23    Time step:     4
 
 
    Solving:  Stress period:    23    Time step:     5
 
 
    Solving:  Stress period:    23    Time step:     6
 
 
    Solving:  Stress period:    23    Time step:     7
 
 
    Solving:  Stress period:    23    Time step:     8
 
 
    Solving:  Stress period:    23    Time step:     9
 
 
    Solving:  Stress period:    23    Time step:    10
 
 
    Solving:  Stress period:    24    Time step:     1
 
1
 STRESS PERIOD NO. 24, LENGTH =  0.1840860E+08
 ------------------------------------------
 NUMBER OF TIME STEPS = 14
 MULTIPLIER FOR DELT =     1.000
 INITIAL TIME STEP SIZE =   1314900.    
 
    Solving:  Stress period:    24    Time step:     2
 
 
    Solving:  Stress period:    24    Time step:     3
 
 
    Solving:  Stress period:    24    Time step:     4
 
 
    Solving:  Stress period:    24    Time step:     5
 
 
    Solving:  Stress period:    24    Time step:     6
 
 
    Solving:  Stress period:    24    Time step:     7
 
 
    Solving:  Stress period:    24    Time step:     8
 
 
    Solving:  Stress period:    24    Time step:     9
 
 
    Solving:  Stress period:    24    Time step:    10
 
 
    Solving:  Stress period:    24    Time step:    11
 
 
    Solving:  Stress period:    24    Time step:    12
 
 
    Solving:  Stress period:    24    Time step:    13
 
 
    Solving:  Stress period:    24    Time step:    14
 
 
    Solving:  Stress period:    25    Time step:     1
 
1
 STRESS PERIOD NO. 25, LENGTH =  0.1314900E+08
 ------------------------------------------
 NUMBER OF TIME STEPS = 10
 MULTIPLIER FOR DELT =     1.000
 INITIAL TIME STEP SIZE =   1314900.    
 
    Solving:  Stress period:    25    Time step:     2
 
 
    Solving:  Stress period:    25    Time step:     3
 
 
    Solving:  Stress period:    25    Time step:     4
 
 
    Solving:  Stress period:    25    Time step:     5
 
 
    Solving:  Stress period:    25    Time step:     6
 
 
    Solving:  Stress period:    25    Time step:     7
 
 
    Solving:  Stress period:    25    Time step:     8
 
 
    Solving:  Stress period:    25    Time step:     9
 
 
    Solving:  Stress period:    25    Time step:    10
 
 
    Solving:  Stress period:    26    Time step:     1
 
1
 STRESS PERIOD NO. 26, LENGTH =  0.1840860E+08
 ------------------------------------------
 NUMBER OF TIME STEPS = 14
 MULTIPLIER FOR DELT =     1.000
 INITIAL TIME STEP SIZE =   1314900.    
 
    Solving:  Stress period:    26    Time step:     2
 
 
    Solving:  Stress period:    26    Time step:     3
 
 
    Solving:  Stress period:    26    Time step:     4
 
 
    Solving:  Stress period:    26    Time step:     5
 
 
    Solving:  Stress period:    26    Time step:     6
 
 
    Solving:  Stress period:    26    Time step:     7
 
 
    Solving:  Stress period:    26    Time step:     8
 
 
    Solving:  Stress period:    26    Time step:     9
 
 
    Solving:  Stress period:    26    Time step:    10
 
 
    Solving:  Stress period:    26    Time step:    11
 
 
    Solving:  Stress period:    26    Time step:    12
 
 
    Solving:  Stress period:    26    Time step:    13
 
 
    Solving:  Stress period:    26    Time step:    14
 
 
    Solving:  Stress period:    27    Time step:     1
 
1
 STRESS PERIOD NO. 27, LENGTH =  0.1314900E+08
 ------------------------------------------
 NUMBER OF TIME STEPS = 10
 MULTIPLIER FOR DELT =     1.000
 INITIAL TIME STEP SIZE =   1314900.    
 
    Solving:  Stress period:    27    Time step:     2
 
 
    Solving:  Stress period:    27    Time step:     3
 
 
    Solving:  Stress period:    27    Time step:     4
 
 
    Solving:  Stress period:    27    Time step:     5
 
 
    Solving:  Stress period:    27    Time step:     6
 
 
    Solving:  Stress period:    27    Time step:     7
 
 
    Solving:  Stress period:    27    Time step:     8
 
 
    Solving:  Stress period:    27    Time step:     9
 
 
    Solving:  Stress period:    27    Time step:    10
 
 
    Solving:  Stress period:    28    Time step:     1
 
1
 STRESS PERIOD NO. 28, LENGTH =  0.1840860E+08
 ------------------------------------------
 NUMBER OF TIME STEPS = 14
 MULTIPLIER FOR DELT =     1.000
 INITIAL TIME STEP SIZE =   1314900.    
 
    Solving:  Stress period:    28    Time step:     2
 
 
    Solving:  Stress period:    28    Time step:     3
 
 
    Solving:  Stress period:    28    Time step:     4
 
 
    Solving:  Stress period:    28    Time step:     5
 
 
    Solving:  Stress period:    28    Time step:     6
 
 
    Solving:  Stress period:    28    Time step:     7
 
 
    Solving:  Stress period:    28    Time step:     8
 
 
    Solving:  Stress period:    28    Time step:     9
 
 
    Solving:  Stress period:    28    Time step:    10
 
 
    Solving:  Stress period:    28    Time step:    11
 
 
    Solving:  Stress period:    28    Time step:    12
 
 
    Solving:  Stress period:    28    Time step:    13
 
 
    Solving:  Stress period:    28    Time step:    14
 
 
    Solving:  Stress period:    29    Time step:     1
 
1
 STRESS PERIOD NO. 29, LENGTH =  0.1314900E+08
 ------------------------------------------
 NUMBER OF TIME STEPS = 10
 MULTIPLIER FOR DELT =     1.000
 INITIAL TIME STEP SIZE =   1314900.    
 
    Solving:  Stress period:    29    Time step:     2
 
 
    Solving:  Stress period:    29    Time step:     3
 
 
    Solving:  Stress period:    29    Time step:     4
 
 
    Solving:  Stress period:    29    Time step:     5
 
 
    Solving:  Stress period:    29    Time step:     6
 
 
    Solving:  Stress period:    29    Time step:     7
 
 
    Solving:  Stress period:    29    Time step:     8
 
 
    Solving:  Stress period:    29    Time step:     9
 
 
    Solving:  Stress period:    29    Time step:    10
 
 
    Solving:  Stress period:    30    Time step:     1
 
1
 STRESS PERIOD NO. 30, LENGTH =  0.1840860E+08
 ------------------------------------------
 NUMBER OF TIME STEPS = 14
 MULTIPLIER FOR DELT =     1.000
 INITIAL TIME STEP SIZE =   1314900.    
 
    Solving:  Stress period:    30    Time step:     2
 
 
    Solving:  Stress period:    30    Time step:     3
 
 
    Solving:  Stress period:    30    Time step:     4
 
 
    Solving:  Stress period:    30    Time step:     5
 
 
    Solving:  Stress period:    30    Time step:     6
 
 
    Solving:  Stress period:    30    Time step:     7
 
 
    Solving:  Stress period:    30    Time step:     8
 
 
    Solving:  Stress period:    30    Time step:     9
 
 
    Solving:  Stress period:    30    Time step:    10
 
 
    Solving:  Stress period:    30    Time step:    11
 
 
    Solving:  Stress period:    30    Time step:    12
 
 
    Solving:  Stress period:    30    Time step:    13
 
 
    Solving:  Stress period:    30    Time step:    14
 
 
    Solving:  Stress period:    31    Time step:     1
 
1
 STRESS PERIOD NO. 31, LENGTH =  0.1314900E+08
 ------------------------------------------
 NUMBER OF TIME STEPS = 10
 MULTIPLIER FOR DELT =     1.000
 INITIAL TIME STEP SIZE =   1314900.    
 
    Solving:  Stress period:    31    Time step:     2
 
 
    Solving:  Stress period:    31    Time step:     3
 
 
    Solving:  Stress period:    31    Time step:     4
 
 
    Solving:  Stress period:    31    Time step:     5
 
 
    Solving:  Stress period:    31    Time step:     6
 
 
    Solving:  Stress period:    31    Time step:     7
 
 
    Solving:  Stress period:    31    Time step:     8
 
 
    Solving:  Stress period:    31    Time step:     9
 
 
    Solving:  Stress period:    31    Time step:    10
 
 
    Solving:  Stress period:    32    Time step:     1
 
1
 STRESS PERIOD NO. 32, LENGTH =  0.1840860E+08
 ------------------------------------------
 NUMBER OF TIME STEPS = 14
 MULTIPLIER FOR DELT =     1.000
 INITIAL TIME STEP SIZE =   1314900.    
 
    Solving:  Stress period:    32    Time step:     2
 
 
    Solving:  Stress period:    32    Time step:     3
 
 
    Solving:  Stress period:    32    Time step:     4
 
 
    Solving:  Stress period:    32    Time step:     5
 
 
    Solving:  Stress period:    32    Time step:     6
 
 
    Solving:  Stress period:    32    Time step:     7
 
 
    Solving:  Stress period:    32    Time step:     8
 
 
    Solving:  Stress period:    32    Time step:     9
 
 
    Solving:  Stress period:    32    Time step:    10
 
 
    Solving:  Stress period:    32    Time step:    11
 
 
    Solving:  Stress period:    32    Time step:    12
 
 
    Solving:  Stress period:    32    Time step:    13
 
 
    Solving:  Stress period:    32    Time step:    14
 
 
    Solving:  Stress period:    33    Time step:     1
 
1
 STRESS PERIOD NO. 33, LENGTH =  0.1314900E+08
 ------------------------------------------
 NUMBER OF TIME STEPS = 10
 MULTIPLIER FOR DELT =     1.000
 INITIAL TIME STEP SIZE =   1314900.    
 
    Solving:  Stress period:    33    Time step:     2
 
 
    Solving:  Stress period:    33    Time step:     3
 
 
    Solving:  Stress period:    33    Time step:     4
 
 
    Solving:  Stress period:    33    Time step:     5
 
 
    Solving:  Stress period:    33    Time step:     6
 
 
    Solving:  Stress period:    33    Time step:     7
 
 
    Solving:  Stress period:    33    Time step:     8
 
 
    Solving:  Stress period:    33    Time step:     9
 
 
    Solving:  Stress period:    33    Time step:    10
 
 
    Solving:  Stress period:    34    Time step:     1
 
1
 STRESS PERIOD NO. 34, LENGTH =  0.1840860E+08
 ------------------------------------------
 NUMBER OF TIME STEPS = 14
 MULTIPLIER FOR DELT =     1.000
 INITIAL TIME STEP SIZE =   1314900.    
 
    Solving:  Stress period:    34    Time step:     2
 
 
    Solving:  Stress period:    34    Time step:     3
 
 
    Solving:  Stress period:    34    Time step:     4
 
 
    Solving:  Stress period:    34    Time step:     5
 
 
    Solving:  Stress period:    34    Time step:     6
 
 
    Solving:  Stress period:    34    Time step:     7
 
 
    Solving:  Stress period:    34    Time step:     8
 
 
    Solving:  Stress period:    34    Time step:     9
 
 
    Solving:  Stress period:    34    Time step:    10
 
 
    Solving:  Stress period:    34    Time step:    11
 
 
    Solving:  Stress period:    34    Time step:    12
 
 
    Solving:  Stress period:    34    Time step:    13
 
 
    Solving:  Stress period:    34    Time step:    14
 
 
    Solving:  Stress period:    35    Time step:     1
 
1
 STRESS PERIOD NO. 35, LENGTH =  0.1314900E+08
 ------------------------------------------
 NUMBER OF TIME STEPS = 10
 MULTIPLIER FOR DELT =     1.000
 INITIAL TIME STEP SIZE =   1314900.    
 
    Solving:  Stress period:    35    Time step:     2
 
 
    Solving:  Stress period:    35    Time step:     3
 
 
    Solving:  Stress period:    35    Time step:     4
 
 
    Solving:  Stress period:    35    Time step:     5
 
 
    Solving:  Stress period:    35    Time step:     6
 
 
    Solving:  Stress period:    35    Time step:     7
 
 
    Solving:  Stress period:    35    Time step:     8
 
 
    Solving:  Stress period:    35    Time step:     9
 
 
    Solving:  Stress period:    35    Time step:    10
 
 
    Solving:  Stress period:    36    Time step:     1
 
1
 STRESS PERIOD NO. 36, LENGTH =  0.1840860E+08
 ------------------------------------------
 NUMBER OF TIME STEPS = 14
 MULTIPLIER FOR DELT =     1.000
 INITIAL TIME STEP SIZE =   1314900.    
 
    Solving:  Stress period:    36    Time step:     2
 
 
    Solving:  Stress period:    36    Time step:     3
 
 
    Solving:  Stress period:    36    Time step:     4
 
 
    Solving:  Stress period:    36    Time step:     5
 
 
    Solving:  Stress period:    36    Time step:     6
 
 
    Solving:  Stress period:    36    Time step:     7
 
 
    Solving:  Stress period:    36    Time step:     8
 
 
    Solving:  Stress period:    36    Time step:     9
 
 
    Solving:  Stress period:    36    Time step:    10
 
 
    Solving:  Stress period:    36    Time step:    11
 
 
    Solving:  Stress period:    36    Time step:    12
 
 
    Solving:  Stress period:    36    Time step:    13
 
 
    Solving:  Stress period:    36    Time step:    14
 
 
    Solving:  Stress period:    37    Time step:     1
 
1
 STRESS PERIOD NO. 37, LENGTH =  0.1314900E+08
 ------------------------------------------
 NUMBER OF TIME STEPS = 10
 MULTIPLIER FOR DELT =     1.000
 INITIAL TIME STEP SIZE =   1314900.    
 
    Solving:  Stress period:    37    Time step:     2
 
 
    Solving:  Stress period:    37    Time step:     3
 
 
    Solving:  Stress period:    37    Time step:     4
 
 
    Solving:  Stress period:    37    Time step:     5
 
 
    Solving:  Stress period:    37    Time step:     6
 
 
    Solving:  Stress period:    37    Time step:     7
 
 
    Solving:  Stress period:    37    Time step:     8
 
 
    Solving:  Stress period:    37    Time step:     9
 
 
    Solving:  Stress period:    37    Time step:    10
 
 
    Solving:  Stress period:    38    Time step:     1
 
1
 STRESS PERIOD NO. 38, LENGTH =  0.1840860E+08
 ------------------------------------------
 NUMBER OF TIME STEPS = 14
 MULTIPLIER FOR DELT =     1.000
 INITIAL TIME STEP SIZE =   1314900.    
 
    Solving:  Stress period:    38    Time step:     2
 
 
    Solving:  Stress period:    38    Time step:     3
 
 
    Solving:  Stress period:    38    Time step:     4
 
 
    Solving:  Stress period:    38    Time step:     5
 
 
    Solving:  Stress period:    38    Time step:     6
 
 
    Solving:  Stress period:    38    Time step:     7
 
 
    Solving:  Stress period:    38    Time step:     8
 
 
    Solving:  Stress period:    38    Time step:     9
 
 
    Solving:  Stress period:    38    Time step:    10
 
 
    Solving:  Stress period:    38    Time step:    11
 
 
    Solving:  Stress period:    38    Time step:    12
 
 
    Solving:  Stress period:    38    Time step:    13
 
 
    Solving:  Stress period:    38    Time step:    14
 
 
    Solving:  Stress period:    39    Time step:     1
 
1
 STRESS PERIOD NO. 39, LENGTH =  0.1314900E+08
 ------------------------------------------
 NUMBER OF TIME STEPS = 10
 MULTIPLIER FOR DELT =     1.000
 INITIAL TIME STEP SIZE =   1314900.    
 
    Solving:  Stress period:    39    Time step:     2
 
 
    Solving:  Stress period:    39    Time step:     3
 
 
    Solving:  Stress period:    39    Time step:     4
 
 
    Solving:  Stress period:    39    Time step:     5
 
 
    Solving:  Stress period:    39    Time step:     6
 
 
    Solving:  Stress period:    39    Time step:     7
 
 
    Solving:  Stress period:    39    Time step:     8
 
 
    Solving:  Stress period:    39    Time step:     9
 
 
    Solving:  Stress period:    39    Time step:    10
 
 
    Solving:  Stress period:    40    Time step:     1
 
1
 STRESS PERIOD NO. 40, LENGTH =  0.1840860E+08
 ------------------------------------------
 NUMBER OF TIME STEPS = 14
 MULTIPLIER FOR DELT =     1.000
 INITIAL TIME STEP SIZE =   1314900.    
 
    Solving:  Stress period:    40    Time step:     2
 
 
    Solving:  Stress period:    40    Time step:     3
 
 
    Solving:  Stress period:    40    Time step:     4
 
 
    Solving:  Stress period:    40    Time step:     5
 
 
    Solving:  Stress period:    40    Time step:     6
 
 
    Solving:  Stress period:    40    Time step:     7
 
 
    Solving:  Stress period:    40    Time step:     8
 
 
    Solving:  Stress period:    40    Time step:     9
 
 
    Solving:  Stress period:    40    Time step:    10
 
 
    Solving:  Stress period:    40    Time step:    11
 
 
    Solving:  Stress period:    40    Time step:    12
 
 
    Solving:  Stress period:    40    Time step:    13
 
 
    Solving:  Stress period:    40    Time step:    14
 
 
    Solving:  Stress period:    41    Time step:     1
 
1
 STRESS PERIOD NO. 41, LENGTH =  0.1314900E+08
 ------------------------------------------
 NUMBER OF TIME STEPS = 10
 MULTIPLIER FOR DELT =     1.000
 INITIAL TIME STEP SIZE =   1314900.    
 
    Solving:  Stress period:    41    Time step:     2
 
 
    Solving:  Stress period:    41    Time step:     3
 
 
    Solving:  Stress period:    41    Time step:     4
 
 
    Solving:  Stress period:    41    Time step:     5
 
 
    Solving:  Stress period:    41    Time step:     6
 
 
    Solving:  Stress period:    41    Time step:     7
 
 
    Solving:  Stress period:    41    Time step:     8
 
 
    Solving:  Stress period:    41    Time step:     9
 
 
    Solving:  Stress period:    41    Time step:    10
 
 
    Solving:  Stress period:    42    Time step:     1
 
1
 STRESS PERIOD NO. 42, LENGTH =  0.1840860E+08
 ------------------------------------------
 NUMBER OF TIME STEPS = 14
 MULTIPLIER FOR DELT =     1.000
 INITIAL TIME STEP SIZE =   1314900.    
 
    Solving:  Stress period:    42    Time step:     2
 
 
    Solving:  Stress period:    42    Time step:     3
 
 
    Solving:  Stress period:    42    Time step:     4
 
 
    Solving:  Stress period:    42    Time step:     5
 
 
    Solving:  Stress period:    42    Time step:     6
 
 
    Solving:  Stress period:    42    Time step:     7
 
 
    Solving:  Stress period:    42    Time step:     8
 
 
    Solving:  Stress period:    42    Time step:     9
 
 
    Solving:  Stress period:    42    Time step:    10
 
 
    Solving:  Stress period:    42    Time step:    11
 
 
    Solving:  Stress period:    42    Time step:    12
 
 
    Solving:  Stress period:    42    Time step:    13
 
 
    Solving:  Stress period:    42    Time step:    14
 
 
    Solving:  Stress period:    43    Time step:     1
 
1
 STRESS PERIOD NO. 43, LENGTH =  0.1314900E+08
 ------------------------------------------
 NUMBER OF TIME STEPS = 10
 MULTIPLIER FOR DELT =     1.000
 INITIAL TIME STEP SIZE =   1314900.    
 
    Solving:  Stress period:    43    Time step:     2
 
 
    Solving:  Stress period:    43    Time step:     3
 
 
    Solving:  Stress period:    43    Time step:     4
 
 
    Solving:  Stress period:    43    Time step:     5
 
 
    Solving:  Stress period:    43    Time step:     6
 
 
    Solving:  Stress period:    43    Time step:     7
 
 
    Solving:  Stress period:    43    Time step:     8
 
 
    Solving:  Stress period:    43    Time step:     9
 
 
    Solving:  Stress period:    43    Time step:    10
 
 
    Solving:  Stress period:    44    Time step:     1
 
1
 STRESS PERIOD NO. 44, LENGTH =  0.1840860E+08
 ------------------------------------------
 NUMBER OF TIME STEPS = 14
 MULTIPLIER FOR DELT =     1.000
 INITIAL TIME STEP SIZE =   1314900.    
 
    Solving:  Stress period:    44    Time step:     2
 
 
    Solving:  Stress period:    44    Time step:     3
 
 
    Solving:  Stress period:    44    Time step:     4
 
 
    Solving:  Stress period:    44    Time step:     5
 
 
    Solving:  Stress period:    44    Time step:     6
 
 
    Solving:  Stress period:    44    Time step:     7
 
 
    Solving:  Stress period:    44    Time step:     8
 
 
    Solving:  Stress period:    44    Time step:     9
 
 
    Solving:  Stress period:    44    Time step:    10
 
 
    Solving:  Stress period:    44    Time step:    11
 
 
    Solving:  Stress period:    44    Time step:    12
 
 
    Solving:  Stress period:    44    Time step:    13
 
 
    Solving:  Stress period:    44    Time step:    14
 
 
    Solving:  Stress period:    45    Time step:     1
 
1
 STRESS PERIOD NO. 45, LENGTH =  0.1314900E+08
 ------------------------------------------
 NUMBER OF TIME STEPS = 10
 MULTIPLIER FOR DELT =     1.000
 INITIAL TIME STEP SIZE =   1314900.    
 
    Solving:  Stress period:    45    Time step:     2
 
 
    Solving:  Stress period:    45    Time step:     3
 
 
    Solving:  Stress period:    45    Time step:     4
 
 
    Solving:  Stress period:    45    Time step:     5
 
 
    Solving:  Stress period:    45    Time step:     6
 
 
    Solving:  Stress period:    45    Time step:     7
 
 
    Solving:  Stress period:    45    Time step:     8
 
 
    Solving:  Stress period:    45    Time step:     9
 
 
    Solving:  Stress period:    45    Time step:    10
 
 
    Solving:  Stress period:    46    Time step:     1
 
1
 STRESS PERIOD NO. 46, LENGTH =  0.1840860E+08
 ------------------------------------------
 NUMBER OF TIME STEPS = 14
 MULTIPLIER FOR DELT =     1.000
 INITIAL TIME STEP SIZE =   1314900.    
 
    Solving:  Stress period:    46    Time step:     2
 
 
    Solving:  Stress period:    46    Time step:     3
 
 
    Solving:  Stress period:    46    Time step:     4
 
 
    Solving:  Stress period:    46    Time step:     5
 
 
    Solving:  Stress period:    46    Time step:     6
 
 
    Solving:  Stress period:    46    Time step:     7
 
 
    Solving:  Stress period:    46    Time step:     8
 
 
    Solving:  Stress period:    46    Time step:     9
 
 
    Solving:  Stress period:    46    Time step:    10
 
 
    Solving:  Stress period:    46    Time step:    11
 
 
    Solving:  Stress period:    46    Time step:    12
 
 
    Solving:  Stress period:    46    Time step:    13
 
 
    Solving:  Stress period:    46    Time step:    14
 
 
    Solving:  Stress period:    47    Time step:     1
 
1
 STRESS PERIOD NO. 47, LENGTH =  0.1314900E+08
 ------------------------------------------
 NUMBER OF TIME STEPS = 10
 MULTIPLIER FOR DELT =     1.000
 INITIAL TIME STEP SIZE =   1314900.    
 
    Solving:  Stress period:    47    Time step:     2
 
 
    Solving:  Stress period:    47    Time step:     3
 
 
    Solving:  Stress period:    47    Time step:     4
 
 
    Solving:  Stress period:    47    Time step:     5
 
 
    Solving:  Stress period:    47    Time step:     6
 
 
    Solving:  Stress period:    47    Time step:     7
 
 
    Solving:  Stress period:    47    Time step:     8
 
 
    Solving:  Stress period:    47    Time step:     9
 
 
    Solving:  Stress period:    47    Time step:    10
 
 
    Solving:  Stress period:    48    Time step:     1
 
1
 STRESS PERIOD NO. 48, LENGTH =  0.1840860E+08
 ------------------------------------------
 NUMBER OF TIME STEPS = 14
 MULTIPLIER FOR DELT =     1.000
 INITIAL TIME STEP SIZE =   1314900.    
 
    Solving:  Stress period:    48    Time step:     2
 
 
    Solving:  Stress period:    48    Time step:     3
 
 
    Solving:  Stress period:    48    Time step:     4
 
 
    Solving:  Stress period:    48    Time step:     5
 
 
    Solving:  Stress period:    48    Time step:     6
 
 
    Solving:  Stress period:    48    Time step:     7
 
 
    Solving:  Stress period:    48    Time step:     8
 
 
    Solving:  Stress period:    48    Time step:     9
 
 
    Solving:  Stress period:    48    Time step:    10
 
 
    Solving:  Stress period:    48    Time step:    11
 
 
    Solving:  Stress period:    48    Time step:    12
 
 
    Solving:  Stress period:    48    Time step:    13
 
 
    Solving:  Stress period:    48    Time step:    14
 
 
    Solving:  Stress period:    49    Time step:     1
 
1
 STRESS PERIOD NO. 49, LENGTH =  0.1314900E+08
 ------------------------------------------
 NUMBER OF TIME STEPS = 10
 MULTIPLIER FOR DELT =     1.000
 INITIAL TIME STEP SIZE =   1314900.    
 
    Solving:  Stress period:    49    Time step:     2
 
 
    Solving:  Stress period:    49    Time step:     3
 
 
    Solving:  Stress period:    49    Time step:     4
 
 
    Solving:  Stress period:    49    Time step:     5
 
 
    Solving:  Stress period:    49    Time step:     6
 
 
    Solving:  Stress period:    49    Time step:     7
 
 
    Solving:  Stress period:    49    Time step:     8
 
 
    Solving:  Stress period:    49    Time step:     9
 
 
    Solving:  Stress period:    49    Time step:    10
 
 
    Solving:  Stress period:    50    Time step:     1
 
1
 STRESS PERIOD NO. 50, LENGTH =  0.1840860E+08
 ------------------------------------------
 NUMBER OF TIME STEPS = 14
 MULTIPLIER FOR DELT =     1.000
 INITIAL TIME STEP SIZE =   1314900.    
 
    Solving:  Stress period:    50    Time step:     2
 
 
    Solving:  Stress period:    50    Time step:     3
 
 
    Solving:  Stress period:    50    Time step:     4
 
 
    Solving:  Stress period:    50    Time step:     5
 
 
    Solving:  Stress period:    50    Time step:     6
 
 
    Solving:  Stress period:    50    Time step:     7
 
 
    Solving:  Stress period:    50    Time step:     8
 
 
    Solving:  Stress period:    50    Time step:     9
 
 
    Solving:  Stress period:    50    Time step:    10
 
 
    Solving:  Stress period:    50    Time step:    11
 
 
    Solving:  Stress period:    50    Time step:    12
 
 
    Solving:  Stress period:    50    Time step:    13
 
 
    Solving:  Stress period:    50    Time step:    14
 
 
    Solving:  Stress period:    51    Time step:     1
 
1
 STRESS PERIOD NO. 51, LENGTH =  0.1314900E+08
 ------------------------------------------
 NUMBER OF TIME STEPS = 10
 MULTIPLIER FOR DELT =     1.000
 INITIAL TIME STEP SIZE =   1314900.    
 
    Solving:  Stress period:    51    Time step:     2
 
 
    Solving:  Stress period:    51    Time step:     3
 
 
    Solving:  Stress period:    51    Time step:     4
 
 
    Solving:  Stress period:    51    Time step:     5
 
 
    Solving:  Stress period:    51    Time step:     6
 
 
    Solving:  Stress period:    51    Time step:     7
 
 
    Solving:  Stress period:    51    Time step:     8
 
 
    Solving:  Stress period:    51    Time step:     9
 
 
    Solving:  Stress period:    51    Time step:    10
 
 
    Solving:  Stress period:    52    Time step:     1
 
1
 STRESS PERIOD NO. 52, LENGTH =  0.1840860E+08
 ------------------------------------------
 NUMBER OF TIME STEPS = 14
 MULTIPLIER FOR DELT =     1.000
 INITIAL TIME STEP SIZE =   1314900.    
 
    Solving:  Stress period:    52    Time step:     2
 
 
    Solving:  Stress period:    52    Time step:     3
 
 
    Solving:  Stress period:    52    Time step:     4
 
 
    Solving:  Stress period:    52    Time step:     5
 
 
    Solving:  Stress period:    52    Time step:     6
 
 
    Solving:  Stress period:    52    Time step:     7
 
 
    Solving:  Stress period:    52    Time step:     8
 
 
    Solving:  Stress period:    52    Time step:     9
 
 
    Solving:  Stress period:    52    Time step:    10
 
 
    Solving:  Stress period:    52    Time step:    11
 
 
    Solving:  Stress period:    52    Time step:    12
 
 
    Solving:  Stress period:    52    Time step:    13
 
 
    Solving:  Stress period:    52    Time step:    14
 
 
    Solving:  Stress period:    53    Time step:     1
 
1
 STRESS PERIOD NO. 53, LENGTH =  0.1314900E+08
 ------------------------------------------
 NUMBER OF TIME STEPS = 10
 MULTIPLIER FOR DELT =     1.000
 INITIAL TIME STEP SIZE =   1314900.    
 
    Solving:  Stress period:    53    Time step:     2
 
 
    Solving:  Stress period:    53    Time step:     3
 
 
    Solving:  Stress period:    53    Time step:     4
 
 
    Solving:  Stress period:    53    Time step:     5
 
 
    Solving:  Stress period:    53    Time step:     6
 
 
    Solving:  Stress period:    53    Time step:     7
 
 
    Solving:  Stress period:    53    Time step:     8
 
 
    Solving:  Stress period:    53    Time step:     9
 
 
    Solving:  Stress period:    53    Time step:    10
 
 
    Solving:  Stress period:    54    Time step:     1
 
1
 STRESS PERIOD NO. 54, LENGTH =  0.1840860E+08
 ------------------------------------------
 NUMBER OF TIME STEPS = 14
 MULTIPLIER FOR DELT =     1.000
 INITIAL TIME STEP SIZE =   1314900.    
 
    Solving:  Stress period:    54    Time step:     2
 
 
    Solving:  Stress period:    54    Time step:     3
 
 
    Solving:  Stress period:    54    Time step:     4
 
 
    Solving:  Stress period:    54    Time step:     5
 
 
    Solving:  Stress period:    54    Time step:     6
 
 
    Solving:  Stress period:    54    Time step:     7
 
 
    Solving:  Stress period:    54    Time step:     8
 
 
    Solving:  Stress period:    54    Time step:     9
 
 
    Solving:  Stress period:    54    Time step:    10
 
 
    Solving:  Stress period:    54    Time step:    11
 
 
    Solving:  Stress period:    54    Time step:    12
 
 
    Solving:  Stress period:    54    Time step:    13
 
 
    Solving:  Stress period:    54    Time step:    14
 
 
    Solving:  Stress period:    55    Time step:     1
 
1
 STRESS PERIOD NO. 55, LENGTH =  0.1314900E+08
 ------------------------------------------
 NUMBER OF TIME STEPS = 10
 MULTIPLIER FOR DELT =     1.000
 INITIAL TIME STEP SIZE =   1314900.    
 
    Solving:  Stress period:    55    Time step:     2
 
 
    Solving:  Stress period:    55    Time step:     3
 
 
    Solving:  Stress period:    55    Time step:     4
 
 
    Solving:  Stress period:    55    Time step:     5
 
 
    Solving:  Stress period:    55    Time step:     6
 
 
    Solving:  Stress period:    55    Time step:     7
 
 
    Solving:  Stress period:    55    Time step:     8
 
 
    Solving:  Stress period:    55    Time step:     9
 
 
    Solving:  Stress period:    55    Time step:    10
 
 
    Solving:  Stress period:    56    Time step:     1
 
1
 STRESS PERIOD NO. 56, LENGTH =  0.1840860E+08
 ------------------------------------------
 NUMBER OF TIME STEPS = 14
 MULTIPLIER FOR DELT =     1.000
 INITIAL TIME STEP SIZE =   1314900.    
 
    Solving:  Stress period:    56    Time step:     2
 
 
    Solving:  Stress period:    56    Time step:     3
 
 
    Solving:  Stress period:    56    Time step:     4
 
 
    Solving:  Stress period:    56    Time step:     5
 
 
    Solving:  Stress period:    56    Time step:     6
 
 
    Solving:  Stress period:    56    Time step:     7
 
 
    Solving:  Stress period:    56    Time step:     8
 
 
    Solving:  Stress period:    56    Time step:     9
 
 
    Solving:  Stress period:    56    Time step:    10
 
 
    Solving:  Stress period:    56    Time step:    11
 
 
    Solving:  Stress period:    56    Time step:    12
 
 
    Solving:  Stress period:    56    Time step:    13
 
 
    Solving:  Stress period:    56    Time step:    14
 
 
    Solving:  Stress period:    57    Time step:     1
 
1
 STRESS PERIOD NO. 57, LENGTH =  0.1314900E+08
 ------------------------------------------
 NUMBER OF TIME STEPS = 10
 MULTIPLIER FOR DELT =     1.000
 INITIAL TIME STEP SIZE =   1314900.    
 
    Solving:  Stress period:    57    Time step:     2
 
 
    Solving:  Stress period:    57    Time step:     3
 
 
    Solving:  Stress period:    57    Time step:     4
 
 
    Solving:  Stress period:    57    Time step:     5
 
 
    Solving:  Stress period:    57    Time step:     6
 
 
    Solving:  Stress period:    57    Time step:     7
 
 
    Solving:  Stress period:    57    Time step:     8
 
 
    Solving:  Stress period:    57    Time step:     9
 
 
    Solving:  Stress period:    57    Time step:    10
 
 
    Solving:  Stress period:    58    Time step:     1
 
1
 STRESS PERIOD NO. 58, LENGTH =  0.1840860E+08
 ------------------------------------------
 NUMBER OF TIME STEPS = 14
 MULTIPLIER FOR DELT =     1.000
 INITIAL TIME STEP SIZE =   1314900.    
 
    Solving:  Stress period:    58    Time step:     2
 
 
    Solving:  Stress period:    58    Time step:     3
 
 
    Solving:  Stress period:    58    Time step:     4
 
 
    Solving:  Stress period:    58    Time step:     5
 
 
    Solving:  Stress period:    58    Time step:     6
 
 
    Solving:  Stress period:    58    Time step:     7
 
 
    Solving:  Stress period:    58    Time step:     8
 
 
    Solving:  Stress period:    58    Time step:     9
 
 
    Solving:  Stress period:    58    Time step:    10
 
 
    Solving:  Stress period:    58    Time step:    11
 
 
    Solving:  Stress period:    58    Time step:    12
 
 
    Solving:  Stress period:    58    Time step:    13
 
 
    Solving:  Stress period:    58    Time step:    14
 
 
    Solving:  Stress period:    59    Time step:     1
 
1
 STRESS PERIOD NO. 59, LENGTH =  0.1314900E+08
 ------------------------------------------
 NUMBER OF TIME STEPS = 10
 MULTIPLIER FOR DELT =     1.000
 INITIAL TIME STEP SIZE =   1314900.    
 
    Solving:  Stress period:    59    Time step:     2
 
 
    Solving:  Stress period:    59    Time step:     3
 
 
    Solving:  Stress period:    59    Time step:     4
 
 
    Solving:  Stress period:    59    Time step:     5
 
 
    Solving:  Stress period:    59    Time step:     6
 
 
    Solving:  Stress period:    59    Time step:     7
 
 
    Solving:  Stress period:    59    Time step:     8
 
 
    Solving:  Stress period:    59    Time step:     9
 
 
    Solving:  Stress period:    59    Time step:    10
 
 
    Solving:  Stress period:    60    Time step:     1
 
1
 STRESS PERIOD NO. 60, LENGTH =  0.1840860E+08
 ------------------------------------------
 NUMBER OF TIME STEPS = 14
 MULTIPLIER FOR DELT =     1.000
 INITIAL TIME STEP SIZE =   1314900.    
 
    Solving:  Stress period:    60    Time step:     2
 
 
    Solving:  Stress period:    60    Time step:     3
 
 
    Solving:  Stress period:    60    Time step:     4
 
 
    Solving:  Stress period:    60    Time step:     5
 
 
    Solving:  Stress period:    60    Time step:     6
 
 
    Solving:  Stress period:    60    Time step:     7
 
 
    Solving:  Stress period:    60    Time step:     8
 
 
    Solving:  Stress period:    60    Time step:     9
 
 
    Solving:  Stress period:    60    Time step:    10
 
 
    Solving:  Stress period:    60    Time step:    11
 
 
    Solving:  Stress period:    60    Time step:    12
 
 
    Solving:  Stress period:    60    Time step:    13
 
 
    Solving:  Stress period:    60    Time step:    14
 
 
    Solving:  Stress period:    61    Time step:     1
 
1
 STRESS PERIOD NO. 61, LENGTH =  0.1314900E+08
 ------------------------------------------
 NUMBER OF TIME STEPS = 10
 MULTIPLIER FOR DELT =     1.000
 INITIAL TIME STEP SIZE =   1314900.    
 
    Solving:  Stress period:    61    Time step:     2
 
 
    Solving:  Stress period:    61    Time step:     3
 
 
    Solving:  Stress period:    61    Time step:     4
 
 
    Solving:  Stress period:    61    Time step:     5
 
 
    Solving:  Stress period:    61    Time step:     6
 
 
    Solving:  Stress period:    61    Time step:     7
 
 
    Solving:  Stress period:    61    Time step:     8
 
 
    Solving:  Stress period:    61    Time step:     9
 
 
    Solving:  Stress period:    61    Time step:    10
 


 Solution SLN_1 summary
 ----------------------------------------------------------------------
 Total formulate time:  1.289600999999935 seconds
 Total solution time:   .7447230000002408 seconds



 Solution SLN_2 summary
 ----------------------------------------------------------------------
 Total formulate time:  52.64878099999924 seconds
 Total solution time:   134.5947049999974 seconds


 MEMORY MANAGER TOTAL STORAGE BY DATA TYPE, IN MEGABYTES
 -------------------------------
                    ALLOCATED   
 DATA TYPE           MEMORY     
 -------------------------------
 Character        1.69050000E-02
 Logical          6.80000000E-05
 Integer          13.460980     
 Real             24.887384     
 -------------------------------
 Total            38.365337     
 Virtual          0.0000000     
 -------------------------------


 
 Run end date and time (yyyy/mm/dd hh:mm:ss): 2025/11/13 18:07:45
 Elapsed run time:  4 Minutes, 47.135 Seconds
 Normal termination of simulation.
